(PID.TID 0000.0001) 
(PID.TID 0000.0001) // ======================================================
(PID.TID 0000.0001) //                      MITgcm UV
(PID.TID 0000.0001) //                      =========
(PID.TID 0000.0001) // ======================================================
(PID.TID 0000.0001) // execution environment starting up...
(PID.TID 0000.0001) 
(PID.TID 0000.0001) // MITgcmUV version:  checkpoint68e
(PID.TID 0000.0001) // Build user:        mbourget
(PID.TID 0000.0001) // Build host:        bkli04l021
(PID.TID 0000.0001) // Build date:        Do 25. Jan 16:54:40 CET 2024
(PID.TID 0000.0001) 
(PID.TID 0000.0001) // =======================================================
(PID.TID 0000.0001) // Execution Environment parameter file "eedata"
(PID.TID 0000.0001) // =======================================================
(PID.TID 0000.0001) ># Example "eedata" file
(PID.TID 0000.0001) ># Lines beginning "#" are comments
(PID.TID 0000.0001) ># nTx - No. threads per process in X
(PID.TID 0000.0001) ># nTy - No. threads per process in Y
(PID.TID 0000.0001) > &EEPARMS
(PID.TID 0000.0001) > nTx=1,
(PID.TID 0000.0001) > nTy=1,
(PID.TID 0000.0001) > /
(PID.TID 0000.0001) 
(PID.TID 0000.0001) // =======================================================
(PID.TID 0000.0001) // Computational Grid Specification ( see files "SIZE.h" )
(PID.TID 0000.0001) //                                  ( and "eedata"       )
(PID.TID 0000.0001) // =======================================================
(PID.TID 0000.0001)      nPx =    1 ; /* No. processes in X */
(PID.TID 0000.0001)      nPy =    1 ; /* No. processes in Y */
(PID.TID 0000.0001)      nSx =    1 ; /* No. tiles in X per process */
(PID.TID 0000.0001)      nSy =    1 ; /* No. tiles in Y per process */
(PID.TID 0000.0001)      sNx =   65 ; /* Tile size in X */
(PID.TID 0000.0001)      sNy =   65 ; /* Tile size in Y */
(PID.TID 0000.0001)      OLx =    4 ; /* Tile overlap distance in X */
(PID.TID 0000.0001)      OLy =    4 ; /* Tile overlap distance in Y */
(PID.TID 0000.0001)      nTx =    1 ; /* No. threads in X per process */
(PID.TID 0000.0001)      nTy =    1 ; /* No. threads in Y per process */
(PID.TID 0000.0001)       Nr =    1 ; /* No. levels in the vertical   */
(PID.TID 0000.0001)       Nx =   65 ; /* Total domain size in X ( = nPx*nSx*sNx ) */
(PID.TID 0000.0001)       Ny =   65 ; /* Total domain size in Y ( = nPy*nSy*sNy ) */
(PID.TID 0000.0001)   nTiles =    1 ; /* Total no. tiles per process ( = nSx*nSy ) */
(PID.TID 0000.0001)   nProcs =    1 ; /* Total no. processes ( = nPx*nPy ) */
(PID.TID 0000.0001) nThreads =    1 ; /* Total no. threads per process ( = nTx*nTy ) */
(PID.TID 0000.0001) usingMPI =    F ; /* Flag used to control whether MPI is in use */
(PID.TID 0000.0001)                   /*  note: To execute a program with MPI calls */
(PID.TID 0000.0001)                   /*  it must be launched appropriately e.g     */
(PID.TID 0000.0001)                   /*  "mpirun -np 64 ......"                    */
(PID.TID 0000.0001) useCoupler=   F ; /* Flag used to control communications with   */
(PID.TID 0000.0001)                   /*  other model components, through a coupler */
(PID.TID 0000.0001) useNest2W_parent =    F ;/* Control 2-W Nesting comm */
(PID.TID 0000.0001) useNest2W_child  =    F ;/* Control 2-W Nesting comm */
(PID.TID 0000.0001) debugMode =    F ; /* print debug msg. (sequence of S/R calls)  */
(PID.TID 0000.0001) printMapIncludesZeros=    F ; /* print zeros in Std.Output maps */
(PID.TID 0000.0001) maxLengthPrt1D=   65 /* maxLength of 1D array printed to StdOut */
(PID.TID 0000.0001) 
(PID.TID 0000.0001) // ======================================================
(PID.TID 0000.0001) // Mapping of tiles to threads
(PID.TID 0000.0001) // ======================================================
(PID.TID 0000.0001) // -o- Thread   1, tiles (   1:   1,   1:   1)
(PID.TID 0000.0001) 
(PID.TID 0000.0001) // ======================================================
(PID.TID 0000.0001) // Tile <-> Tile connectvity table
(PID.TID 0000.0001) // ======================================================
(PID.TID 0000.0001) // Tile number: 000001 (process no. = 000000)
(PID.TID 0000.0001) //        WEST: Tile = 000001, Process = 000000, Comm = put
(PID.TID 0000.0001) //                bi = 000001, bj = 000001
(PID.TID 0000.0001) //        EAST: Tile = 000001, Process = 000000, Comm = put
(PID.TID 0000.0001) //                bi = 000001, bj = 000001
(PID.TID 0000.0001) //       SOUTH: Tile = 000001, Process = 000000, Comm = put
(PID.TID 0000.0001) //                bi = 000001, bj = 000001
(PID.TID 0000.0001) //       NORTH: Tile = 000001, Process = 000000, Comm = put
(PID.TID 0000.0001) //                bi = 000001, bj = 000001
(PID.TID 0000.0001) 
(PID.TID 0000.0001)  INI_PARMS: opening model parameter file "data"
(PID.TID 0000.0001)  OPEN_COPY_DATA_FILE: opening file data
(PID.TID 0000.0001) // =======================================================
(PID.TID 0000.0001) // Parameter file "data"
(PID.TID 0000.0001) // =======================================================
(PID.TID 0000.0001) >/ =======================================================
(PID.TID 0000.0001) >/ Parameter file "data"
(PID.TID 0000.0001) >/ =======================================================
(PID.TID 0000.0001) ># ====================
(PID.TID 0000.0001) ># | Model parameters |
(PID.TID 0000.0001) ># ====================
(PID.TID 0000.0001) >#
(PID.TID 0000.0001) > &PARM01
(PID.TID 0000.0001) > tRef= -1.62,
(PID.TID 0000.0001) > sRef= 30.,
(PID.TID 0000.0001) > HeatCapacity_Cp = 3986.,
(PID.TID 0000.0001) > rhoNil          = 1026.,
(PID.TID 0000.0001) > rhoConst        = 1026.,
(PID.TID 0000.0001) > rhoConstFresh   = 1000.,
(PID.TID 0000.0001) > f0=1.46e-4,
(PID.TID 0000.0001) > saltStepping=.FALSE.,
(PID.TID 0000.0001) > tempStepping=.FALSE.,
(PID.TID 0000.0001) > momStepping=.FALSE.,
(PID.TID 0000.0001) > readBinaryPrec=64,
(PID.TID 0000.0001) > writeBinaryPrec=32,
(PID.TID 0000.0001) > useSingleCpuIO=.TRUE.,
(PID.TID 0000.0001) >#debugLevel=4,
(PID.TID 0000.0001) > /
(PID.TID 0000.0001) >
(PID.TID 0000.0001) ># Elliptic solver parameters
(PID.TID 0000.0001) > &PARM02
(PID.TID 0000.0001) > cg2dMaxIters=500,
(PID.TID 0000.0001) > cg2dTargetResidual=1.E-12,
(PID.TID 0000.0001) > /
(PID.TID 0000.0001) >
(PID.TID 0000.0001) ># Time stepping parameters
(PID.TID 0000.0001) > &PARM03
(PID.TID 0000.0001) > startTime=0.0,
(PID.TID 0000.0001) ># 2 days
(PID.TID 0000.0001) >#endTime = 172800.,
(PID.TID 0000.0001) >#nTimeSteps = 1441,
(PID.TID 0000.0001) > nTimeSteps = 20,
(PID.TID 0000.0001) > deltaT=2.5,
(PID.TID 0000.0001) > abEps=0.1,
(PID.TID 0000.0001) > forcing_In_AB = .FALSE.,
(PID.TID 0000.0001) > dumpFreq  = 0.,
(PID.TID 0000.0001) > monitorSelect=2,
(PID.TID 0000.0001) > /
(PID.TID 0000.0001) >
(PID.TID 0000.0001) ># Gridding parameters
(PID.TID 0000.0001) > &PARM04
(PID.TID 0000.0001) > usingCartesianGrid=.TRUE.,
(PID.TID 0000.0001) > dxSpacing=8.E3,
(PID.TID 0000.0001) > dySpacing=8.E3,
(PID.TID 0000.0001) > delR= 10.,
(PID.TID 0000.0001) > /
(PID.TID 0000.0001) >
(PID.TID 0000.0001) ># Input datasets
(PID.TID 0000.0001) > &PARM05
(PID.TID 0000.0001) > bathyFile       = 'bathy_3c_8000.bin',
(PID.TID 0000.0001) > uVelInitFile    = 'uVel_8000.bin',
(PID.TID 0000.0001) > vVelInitFile    = 'vVel_8000.bin',
(PID.TID 0000.0001) > /
(PID.TID 0000.0001) 
(PID.TID 0000.0001)  INI_PARMS ; starts to read PARM01
(PID.TID 0000.0001)  INI_PARMS ; read PARM01 : OK
(PID.TID 0000.0001) S/R INI_PARMS: No request for barotropic solver
(PID.TID 0000.0001) S/R INI_PARMS: => Use implicitFreeSurface as default
(PID.TID 0000.0001)  INI_PARMS ; starts to read PARM02
(PID.TID 0000.0001)  INI_PARMS ; read PARM02 : OK
(PID.TID 0000.0001)  INI_PARMS ; starts to read PARM03
(PID.TID 0000.0001)  INI_PARMS ; read PARM03 : OK
(PID.TID 0000.0001)  INI_PARMS ; starts to read PARM04
(PID.TID 0000.0001)  INI_PARMS ; read PARM04 : OK
(PID.TID 0000.0001)  INI_PARMS ; starts to read PARM05
(PID.TID 0000.0001)  INI_PARMS ; read PARM05 : OK
(PID.TID 0000.0001)  INI_PARMS: finished reading file "data"
(PID.TID 0000.0001)  PACKAGES_BOOT: opening data.pkg
(PID.TID 0000.0001)  OPEN_COPY_DATA_FILE: opening file data.pkg
(PID.TID 0000.0001) // =======================================================
(PID.TID 0000.0001) // Parameter file "data.pkg"
(PID.TID 0000.0001) // =======================================================
(PID.TID 0000.0001) ># Packages
(PID.TID 0000.0001) > &PACKAGES
(PID.TID 0000.0001) >  useEXF    = .TRUE.,
(PID.TID 0000.0001) >  useSEAICE = .TRUE.,
(PID.TID 0000.0001) >  useDiagnostics=.TRUE.,
(PID.TID 0000.0001) > /
(PID.TID 0000.0001) 
(PID.TID 0000.0001)  PACKAGES_BOOT: finished reading data.pkg
(PID.TID 0000.0001) ** WARNING ** PACKAGES_BOOT: useCAL no longer set to T when using EXF (useEXF=T)
(PID.TID 0000.0001) ** WARNING ** PACKAGES_BOOT:  as it used to be before checkpoint66d (2017/02/13)
(PID.TID 0000.0001)  PACKAGES_BOOT: On/Off package Summary
 --------  pkgs with a standard "usePKG" On/Off switch in "data.pkg":  --------
 pkg/cal                  compiled but not used ( useCAL                   = F )
 pkg/exf                  compiled   and   used ( useEXF                   = T )
 pkg/seaice               compiled   and   used ( useSEAICE                = T )
 pkg/thsice               compiled but not used ( useThSIce                = F )
 pkg/diagnostics          compiled   and   used ( useDiagnostics           = T )
 pkg/mnc                  compiled but not used ( useMNC                   = F )
 -------- pkgs without standard "usePKG" On/Off switch in "data.pkg":  --------
 pkg/generic_advdiff      compiled but not used ( useGAD                   = F )
 pkg/mom_common           compiled but not used ( momStepping              = F )
 pkg/mom_vecinv           compiled but not used ( +vectorInvariantMomentum = F )
 pkg/mom_fluxform         compiled but not used ( & not vectorInvariantMom = F )
 pkg/monitor              compiled   and   used ( monitorFreq > 0.         = T )
 pkg/debug                compiled but not used ( debugMode                = F )
 pkg/rw                   compiled   and   used
 pkg/mdsio                compiled   and   used
(PID.TID 0000.0001)  PACKAGES_BOOT: End of package Summary
(PID.TID 0000.0001) 
(PID.TID 0000.0001) EXF_READPARMS: opening data.exf
(PID.TID 0000.0001)  OPEN_COPY_DATA_FILE: opening file data.exf
(PID.TID 0000.0001) // =======================================================
(PID.TID 0000.0001) // Parameter file "data.exf"
(PID.TID 0000.0001) // =======================================================
(PID.TID 0000.0001) >#
(PID.TID 0000.0001) ># *********************
(PID.TID 0000.0001) ># External Forcing Data
(PID.TID 0000.0001) ># *********************
(PID.TID 0000.0001) > &EXF_NML_01
(PID.TID 0000.0001) >#
(PID.TID 0000.0001) > useExfCheckRange  = .TRUE.,
(PID.TID 0000.0001) > repeatPeriod      = 1382400.0,
(PID.TID 0000.0001) > exf_iprec         = 64,
(PID.TID 0000.0001) > exf_monFreq       = 86400000.,
(PID.TID 0000.0001) > atmrho            = 1.3,
(PID.TID 0000.0001) >#useRelativeWind = .TRUE.,
(PID.TID 0000.0001) >#
(PID.TID 0000.0001) > /
(PID.TID 0000.0001) >
(PID.TID 0000.0001) ># *********************
(PID.TID 0000.0001) > &EXF_NML_02
(PID.TID 0000.0001) >#
(PID.TID 0000.0001) >#uwindstartdate1   = 00000101,
(PID.TID 0000.0001) >#uwindstartdate2   = 000000,
(PID.TID 0000.0001) > uwindperiod       = 10800.0,
(PID.TID 0000.0001) >#
(PID.TID 0000.0001) >#vwindstartdate1   = 00000101,
(PID.TID 0000.0001) >#vwindstartdate2   = 000000,
(PID.TID 0000.0001) > vwindperiod       = 10800.0,
(PID.TID 0000.0001) >#
(PID.TID 0000.0001) > uwindfile         = 'Uwindfield_shifted_8000.bin',
(PID.TID 0000.0001) > vwindfile         = 'Vwindfield_shifted_8000.bin',
(PID.TID 0000.0001) > /
(PID.TID 0000.0001) >
(PID.TID 0000.0001) ># *********************
(PID.TID 0000.0001) > &EXF_NML_03
(PID.TID 0000.0001) > /
(PID.TID 0000.0001) >
(PID.TID 0000.0001) ># *********************
(PID.TID 0000.0001) ># old open64 compiler (4.2.1) cannot skip this namelist to read in the next one;
(PID.TID 0000.0001) ># comment out this namelist (not read).
(PID.TID 0000.0001) >#&EXF_NML_04
(PID.TID 0000.0001) >#&
(PID.TID 0000.0001) >
(PID.TID 0000.0001) ># *********************
(PID.TID 0000.0001) > &EXF_NML_OBCS
(PID.TID 0000.0001) > /
(PID.TID 0000.0001) 
(PID.TID 0000.0001) EXF_READPARMS: reading EXF_NML_01
(PID.TID 0000.0001) EXF_READPARMS: reading EXF_NML_02
(PID.TID 0000.0001) EXF_READPARMS: reading EXF_NML_03
(PID.TID 0000.0001) EXF_READPARMS: finished reading data.exf
(PID.TID 0000.0001) 
(PID.TID 0000.0001)  SEAICE_READPARMS: opening data.seaice
(PID.TID 0000.0001)  OPEN_COPY_DATA_FILE: opening file data.seaice
(PID.TID 0000.0001) // =======================================================
(PID.TID 0000.0001) // Parameter file "data.seaice"
(PID.TID 0000.0001) // =======================================================
(PID.TID 0000.0001) ># SEAICE parameters
(PID.TID 0000.0001) > &SEAICE_PARM01
(PID.TID 0000.0001) > SEAICE_monFreq = 1.,
(PID.TID 0000.0001) > SEAICE_dumpFreq= 1.,
(PID.TID 0000.0001) > SEAICEwriteState = .TRUE.,
(PID.TID 0000.0001) > usePW79thermodynamics=.FALSE.,
(PID.TID 0000.0001) >#SEAICE_strength    = 27.5e+3,
(PID.TID 0000.0001) >#meb
(PID.TID 0000.0001) > SEAICE_strength    = 5.0e+8,
(PID.TID 0000.0001) > SEAICEcohesion     = 25.0e+1,
(PID.TID 0000.0001) > SEAICEhealingTime = 1e+5,
(PID.TID 0000.0001) > SEAICEuseIMEX= .TRUE.,
(PID.TID 0000.0001) > SEAICEuseMEB   = .TRUE.,
(PID.TID 0000.0001) > SEAICEupdateDamage = .TRUE.,
(PID.TID 0000.0001) > SEAICEuseKrylov = .TRUE.,
(PID.TID 0000.0001) > SEAICEdamageTime = 8.,
(PID.TID 0000.0001) >#SEAICEscaleSurfStress = .FALSE.,
(PID.TID 0000.0001) > SEAICE_rhoIce      = 900.,
(PID.TID 0000.0001) > SEAICE_drag        = 1.2e-3,
(PID.TID 0000.0001) > SEAICE_waterDrag   = 5.5e-3,
(PID.TID 0000.0001) > SEAICE_no_Slip     = .TRUE.,
(PID.TID 0000.0001) > SEAICE_deltaMin    = 2.e-9,
(PID.TID 0000.0001) >#SEAICEpressReplFac = 0.,
(PID.TID 0000.0001) > SEAICEuseJFNK       = .FALSE.,
(PID.TID 0000.0001) > SEAICEnonLinIterMax = 100,
(PID.TID 0000.0001) > SEAICEpreconLinIter = 10,
(PID.TID 0000.0001) > SEAICElinearIterMax = 50,
(PID.TID 0000.0001) > SEAICEnonLinTol     = 1.e-12,
(PID.TID 0000.0001) > SEAICE_JFNK_lsIter  = 10,
(PID.TID 0000.0001) > SEAICE_JFNK_tolIter = 50,
(PID.TID 0000.0001) > JFNKres_tFac        = 0.5,
(PID.TID 0000.0001) >#SEAICE_JFNKepsilon  = 1.D-06,
(PID.TID 0000.0001) > SEAICE_JFNKphi      = 0.7,
(PID.TID 0000.0001) > SEAICE_JFNKalpha    = 1.5,
(PID.TID 0000.0001) > SEAICEadvScheme    = 77,
(PID.TID 0000.0001) >#SEAICEadvSnow = .FALSE.,
(PID.TID 0000.0001) >#SEAICEadvHEFF = .FALSE.,
(PID.TID 0000.0001) >#SEAICEadvAREA = .FALSE.,
(PID.TID 0000.0001) > SEAICEadvStress = .FALSE.,
(PID.TID 0000.0001) >#SEAICE_initialHeff = 0.3,
(PID.TID 0000.0001) > HeffFile  = 'thickness_aniso_8000.bin',
(PID.TID 0000.0001) > AreaFile  = 'const_1.0_8000.bin',
(PID.TID 0000.0001) > HsnowFile = 'const_00_8000.bin',
(PID.TID 0000.0001) >#CohesFile = 'cohesion_8000.bin',
(PID.TID 0000.0001) > /
(PID.TID 0000.0001) >
(PID.TID 0000.0001) > &SEAICE_PARM03
(PID.TID 0000.0001) > /
(PID.TID 0000.0001) 
(PID.TID 0000.0001)  SEAICE_READPARMS: finished reading data.seaice
(PID.TID 0000.0001)  DIAGNOSTICS_READPARMS: opening data.diagnostics
(PID.TID 0000.0001)  OPEN_COPY_DATA_FILE: opening file data.diagnostics
(PID.TID 0000.0001) // =======================================================
(PID.TID 0000.0001) // Parameter file "data.diagnostics"
(PID.TID 0000.0001) // =======================================================
(PID.TID 0000.0001) ># Diagnostic Package Choices
(PID.TID 0000.0001) >#--------------------
(PID.TID 0000.0001) >#  dumpAtLast (logical): always write output at the end of simulation (default=F)
(PID.TID 0000.0001) >#  diag_mnc   (logical): write to NetCDF files (default=useMNC)
(PID.TID 0000.0001) >#--for each output-stream:
(PID.TID 0000.0001) >#  fileName(n) : prefix of the output file name (max 80c long) for outp.stream n
(PID.TID 0000.0001) >#  frequency(n):< 0 : write snap-shot output every |frequency| seconds
(PID.TID 0000.0001) >#               > 0 : write time-average output every frequency seconds
(PID.TID 0000.0001) >#  timePhase(n)     : write at time = timePhase + multiple of |frequency|
(PID.TID 0000.0001) >#    averagingFreq  : frequency (in s) for periodic averaging interval
(PID.TID 0000.0001) >#    averagingPhase : phase     (in s) for periodic averaging interval
(PID.TID 0000.0001) >#    repeatCycle    : number of averaging intervals in 1 cycle
(PID.TID 0000.0001) >#  levels(:,n) : list of levels to write to file (Notes: declared as REAL)
(PID.TID 0000.0001) >#                when this entry is missing, select all common levels of this list
(PID.TID 0000.0001) >#  fields(:,n) : list of selected diagnostics fields (8.c) in outp.stream n
(PID.TID 0000.0001) >#                (see "available_diagnostics.log" file for the full list of diags)
(PID.TID 0000.0001) >#  missing_value(n) : missing value for real-type fields in output file "n"
(PID.TID 0000.0001) >#  fileFlags(n)     : specific code (8c string) for output file "n"
(PID.TID 0000.0001) >#--------------------
(PID.TID 0000.0001) ># This example dumps EXF diagnostics as snapshot after 10 time-steps
(PID.TID 0000.0001) ># Note: EXF air-sea fluxes over Sea-Ice are wrong
(PID.TID 0000.0001) > &DIAGNOSTICS_LIST
(PID.TID 0000.0001) >   dumpAtLast  = .TRUE.,
(PID.TID 0000.0001) >#--
(PID.TID 0000.0001) >  fields(1:11,1) = 'EXFtaux ','EXFtauy ','EXFqnet ','EXFempmr',
(PID.TID 0000.0001) >                   'EXFhl   ','EXFhs   ','EXFswnet','EXFlwnet',
(PID.TID 0000.0001) >                   'EXFuwind','EXFvwind','EXFatemp',
(PID.TID 0000.0001) >#  fileName(1) = 'exfDiag',
(PID.TID 0000.0001) >  frequency(1) = 86400.,
(PID.TID 0000.0001) >
(PID.TID 0000.0001) >  fields(1:4,2)  = 'SIuice  ','SIvice  ','SIheff  ',
(PID.TID 0000.0001) >                   'SIarea  ',
(PID.TID 0000.0001) >#  fileName(2) = 'iceDiag',
(PID.TID 0000.0001) >  frequency(2) =  86400.,
(PID.TID 0000.0001) >  missing_value(2) = -999.,
(PID.TID 0000.0001) >
(PID.TID 0000.0001) >  fields(1:13,3)  = 'SIuice  ','SIvice  ','SIheff  ',
(PID.TID 0000.0001) >                   'SIarea  ','SIshear ','SIcohes ',
(PID.TID 0000.0001) >       	           'SIsig1  ','SIsig2  ','SIdamage',
(PID.TID 0000.0001) >		   'SItaux  ','SItauy  ',
(PID.TID 0000.0001) >		   'EXFuwind','EXFvwind',
(PID.TID 0000.0001) >   fileName(3) = 'snapshot',
(PID.TID 0000.0001) >  frequency(3) = 1.,
(PID.TID 0000.0001) ># frequency(3) = -1800.,
(PID.TID 0000.0001) ># timePhase(3) =  1800.,
(PID.TID 0000.0001) >  missing_value(3) = -999.,
(PID.TID 0000.0001) > /
(PID.TID 0000.0001) >
(PID.TID 0000.0001) >#--------------------
(PID.TID 0000.0001) ># Parameter for Diagnostics of per level statistics:
(PID.TID 0000.0001) >#--------------------
(PID.TID 0000.0001) >#  diagSt_mnc (logical): write stat-diags to NetCDF files (default=diag_mnc)
(PID.TID 0000.0001) >#  diagSt_regMaskFile : file containing the region-mask to read-in
(PID.TID 0000.0001) >#  nSetRegMskFile   : number of region-mask sets within the region-mask file
(PID.TID 0000.0001) >#  set_regMask(i)   : region-mask set-index that identifies the region "i"
(PID.TID 0000.0001) >#  val_regMask(i)   : region "i" identifier value in the region mask
(PID.TID 0000.0001) >#--for each output-stream:
(PID.TID 0000.0001) >#  stat_fName(n) : prefix of the output file name (max 80c long) for outp.stream n
(PID.TID 0000.0001) >#  stat_freq(n):< 0 : write snap-shot output every |stat_freq| seconds
(PID.TID 0000.0001) >#               > 0 : write time-average output every stat_freq seconds
(PID.TID 0000.0001) >#  stat_phase(n)    : write at time = stat_phase + multiple of |stat_freq|
(PID.TID 0000.0001) >#  stat_region(:,n) : list of "regions" (default: 1 region only=global)
(PID.TID 0000.0001) >#  stat_fields(:,n) : list of selected diagnostics fields (8.c) in outp.stream n
(PID.TID 0000.0001) >#                (see "available_diagnostics.log" file for the full list of diags)
(PID.TID 0000.0001) >#--------------------
(PID.TID 0000.0001) > &DIAG_STATIS_PARMS
(PID.TID 0000.0001) > stat_fields(1:5,1)  = 'SIarea  ','SIheff  ','SIhsnow ',
(PID.TID 0000.0001) >                       'SIuice  ','SIvice  ',
(PID.TID 0000.0001) ># stat_fName(1) = 'iceStDiag',
(PID.TID 0000.0001) >   stat_freq(1) = 86400.,
(PID.TID 0000.0001) ># stat_phase(1) = 1800.,
(PID.TID 0000.0001) > /
(PID.TID 0000.0001) 
(PID.TID 0000.0001) S/R DIAGNOSTICS_READPARMS, read namelist "diagnostics_list": start
(PID.TID 0000.0001) S/R DIAGNOSTICS_READPARMS, read namelist "diagnostics_list": OK
(PID.TID 0000.0001) S/R DIAGNOSTICS_READPARMS, read namelist "DIAG_STATIS_PARMS": start
(PID.TID 0000.0001) S/R DIAGNOSTICS_READPARMS, read namelist "DIAG_STATIS_PARMS": OK
(PID.TID 0000.0001)  DIAGNOSTICS_READPARMS: global parameter summary:
(PID.TID 0000.0001)  dumpAtLast = /* always write time-ave diags at the end */
(PID.TID 0000.0001)                   T
(PID.TID 0000.0001)     ;
(PID.TID 0000.0001)  diag_mnc =   /* write NetCDF output files */
(PID.TID 0000.0001)                   F
(PID.TID 0000.0001)     ;
(PID.TID 0000.0001)  useMissingValue = /* put MissingValue where mask = 0 */
(PID.TID 0000.0001)                   F
(PID.TID 0000.0001)     ;
(PID.TID 0000.0001)  diagCG_maxIters = /* max number of iters in diag_cg2d */
(PID.TID 0000.0001)                     500
(PID.TID 0000.0001)     ;
(PID.TID 0000.0001)  diagCG_resTarget = /* residual target for diag_cg2d */
(PID.TID 0000.0001)                 1.000000000000000E-12
(PID.TID 0000.0001)     ;
(PID.TID 0000.0001)  diagCG_pcOffDFac = /* preconditioner off-diagonal factor */
(PID.TID 0000.0001)                 9.611687812379854E-01
(PID.TID 0000.0001)     ;
(PID.TID 0000.0001) -----------------------------------------------------
(PID.TID 0000.0001)  DIAGNOSTICS_READPARMS: active diagnostics summary:
(PID.TID 0000.0001) -----------------------------------------------------
(PID.TID 0000.0001) Creating Output Stream: snapshot
(PID.TID 0000.0001) Output Frequency:          1.000000 ; Phase:           0.000000
(PID.TID 0000.0001)  Averaging Freq.:          1.000000 , Phase:           0.000000 , Cycle:   1
(PID.TID 0000.0001)  missing value: -9.990000000000E+02
(PID.TID 0000.0001)  Levels:    will be set later
(PID.TID 0000.0001)  Fields:    SIuice   SIvice   SIheff   SIarea   SIshear  SIcohes  SIsig1   SIsig2   SIdamage SItaux
(PID.TID 0000.0001)  Fields:    SItauy   EXFuwind EXFvwind
(PID.TID 0000.0001) -----------------------------------------------------
(PID.TID 0000.0001)  DIAGNOSTICS_READPARMS: statistics diags. summary:
(PID.TID 0000.0001) -----------------------------------------------------
(PID.TID 0000.0001) 
(PID.TID 0000.0001) SET_PARMS: done
(PID.TID 0000.0001) Enter INI_VERTICAL_GRID: setInterFDr=    T ; setCenterDr=    F
(PID.TID 0000.0001) %MON XC_max                       =   5.1600000000000E+05
(PID.TID 0000.0001) %MON XC_min                       =   4.0000000000000E+03
(PID.TID 0000.0001) %MON XC_mean                      =   2.6000000000000E+05
(PID.TID 0000.0001) %MON XC_sd                        =   1.5009330431435E+05
(PID.TID 0000.0001) %MON XG_max                       =   5.1200000000000E+05
(PID.TID 0000.0001) %MON XG_min                       =   0.0000000000000E+00
(PID.TID 0000.0001) %MON XG_mean                      =   2.5600000000000E+05
(PID.TID 0000.0001) %MON XG_sd                        =   1.5009330431435E+05
(PID.TID 0000.0001) %MON DXC_max                      =   8.0000000000000E+03
(PID.TID 0000.0001) %MON DXC_min                      =   8.0000000000000E+03
(PID.TID 0000.0001) %MON DXC_mean                     =   8.0000000000000E+03
(PID.TID 0000.0001) %MON DXC_sd                       =   0.0000000000000E+00
(PID.TID 0000.0001) %MON DXF_max                      =   8.0000000000000E+03
(PID.TID 0000.0001) %MON DXF_min                      =   8.0000000000000E+03
(PID.TID 0000.0001) %MON DXF_mean                     =   8.0000000000000E+03
(PID.TID 0000.0001) %MON DXF_sd                       =   0.0000000000000E+00
(PID.TID 0000.0001) %MON DXG_max                      =   8.0000000000000E+03
(PID.TID 0000.0001) %MON DXG_min                      =   8.0000000000000E+03
(PID.TID 0000.0001) %MON DXG_mean                     =   8.0000000000000E+03
(PID.TID 0000.0001) %MON DXG_sd                       =   0.0000000000000E+00
(PID.TID 0000.0001) %MON DXV_max                      =   8.0000000000000E+03
(PID.TID 0000.0001) %MON DXV_min                      =   8.0000000000000E+03
(PID.TID 0000.0001) %MON DXV_mean                     =   8.0000000000000E+03
(PID.TID 0000.0001) %MON DXV_sd                       =   0.0000000000000E+00
(PID.TID 0000.0001) %MON YC_max                       =   5.1600000000000E+05
(PID.TID 0000.0001) %MON YC_min                       =   4.0000000000000E+03
(PID.TID 0000.0001) %MON YC_mean                      =   2.6000000000000E+05
(PID.TID 0000.0001) %MON YC_sd                        =   1.5009330431435E+05
(PID.TID 0000.0001) %MON YG_max                       =   5.1200000000000E+05
(PID.TID 0000.0001) %MON YG_min                       =   0.0000000000000E+00
(PID.TID 0000.0001) %MON YG_mean                      =   2.5600000000000E+05
(PID.TID 0000.0001) %MON YG_sd                        =   1.5009330431435E+05
(PID.TID 0000.0001) %MON DYC_max                      =   8.0000000000000E+03
(PID.TID 0000.0001) %MON DYC_min                      =   8.0000000000000E+03
(PID.TID 0000.0001) %MON DYC_mean                     =   8.0000000000000E+03
(PID.TID 0000.0001) %MON DYC_sd                       =   0.0000000000000E+00
(PID.TID 0000.0001) %MON DYF_max                      =   8.0000000000000E+03
(PID.TID 0000.0001) %MON DYF_min                      =   8.0000000000000E+03
(PID.TID 0000.0001) %MON DYF_mean                     =   8.0000000000000E+03
(PID.TID 0000.0001) %MON DYF_sd                       =   0.0000000000000E+00
(PID.TID 0000.0001) %MON DYG_max                      =   8.0000000000000E+03
(PID.TID 0000.0001) %MON DYG_min                      =   8.0000000000000E+03
(PID.TID 0000.0001) %MON DYG_mean                     =   8.0000000000000E+03
(PID.TID 0000.0001) %MON DYG_sd                       =   0.0000000000000E+00
(PID.TID 0000.0001) %MON DYU_max                      =   8.0000000000000E+03
(PID.TID 0000.0001) %MON DYU_min                      =   8.0000000000000E+03
(PID.TID 0000.0001) %MON DYU_mean                     =   8.0000000000000E+03
(PID.TID 0000.0001) %MON DYU_sd                       =   0.0000000000000E+00
(PID.TID 0000.0001) %MON RA_max                       =   6.4000000000000E+07
(PID.TID 0000.0001) %MON RA_min                       =   6.4000000000000E+07
(PID.TID 0000.0001) %MON RA_mean                      =   6.4000000000000E+07
(PID.TID 0000.0001) %MON RA_sd                        =   0.0000000000000E+00
(PID.TID 0000.0001) %MON RAW_max                      =   6.4000000000000E+07
(PID.TID 0000.0001) %MON RAW_min                      =   6.4000000000000E+07
(PID.TID 0000.0001) %MON RAW_mean                     =   6.4000000000000E+07
(PID.TID 0000.0001) %MON RAW_sd                       =   0.0000000000000E+00
(PID.TID 0000.0001) %MON RAS_max                      =   6.4000000000000E+07
(PID.TID 0000.0001) %MON RAS_min                      =   6.4000000000000E+07
(PID.TID 0000.0001) %MON RAS_mean                     =   6.4000000000000E+07
(PID.TID 0000.0001) %MON RAS_sd                       =   0.0000000000000E+00
(PID.TID 0000.0001) %MON RAZ_max                      =   6.4000000000000E+07
(PID.TID 0000.0001) %MON RAZ_min                      =   6.4000000000000E+07
(PID.TID 0000.0001) %MON RAZ_mean                     =   6.4000000000000E+07
(PID.TID 0000.0001) %MON RAZ_sd                       =   0.0000000000000E+00
(PID.TID 0000.0001) %MON AngleCS_max                  =   1.0000000000000E+00
(PID.TID 0000.0001) %MON AngleCS_min                  =   1.0000000000000E+00
(PID.TID 0000.0001) %MON AngleCS_mean                 =   1.0000000000000E+00
(PID.TID 0000.0001) %MON AngleCS_sd                   =   0.0000000000000E+00
(PID.TID 0000.0001) %MON AngleSN_max                  =   0.0000000000000E+00
(PID.TID 0000.0001) %MON AngleSN_min                  =   0.0000000000000E+00
(PID.TID 0000.0001) %MON AngleSN_mean                 =   0.0000000000000E+00
(PID.TID 0000.0001) %MON AngleSN_sd                   =   0.0000000000000E+00
(PID.TID 0000.0001)  MDS_READ_FIELD: opening global file: bathy_3c_8000.bin
(PID.TID 0000.0001) // =======================================================
(PID.TID 0000.0001) // Field Model R_low (ini_masks_etc)
(PID.TID 0000.0001) // CMIN =         -1.000000000000000E+01
(PID.TID 0000.0001) // CMAX =         -1.000000000000000E+01
(PID.TID 0000.0001) // CINT =          0.000000000000000E+00
(PID.TID 0000.0001) // SYMBOLS (CMIN->CMAX): -abcdefghijklmnopqrstuvwxyz+
(PID.TID 0000.0001) //                  0.0: .
(PID.TID 0000.0001) // RANGE I (Lo:Hi:Step):(    -3:    69:     1)
(PID.TID 0000.0001) // RANGE J (Lo:Hi:Step):(    69:    -3:    -1)
(PID.TID 0000.0001) // RANGE K (Lo:Hi:Step):(   1:   1:   1)
(PID.TID 0000.0001) // =======================================================
(PID.TID 0000.0001) // =======================================================
(PID.TID 0000.0001) // END OF FIELD                                          =
(PID.TID 0000.0001) // =======================================================
(PID.TID 0000.0001) 
(PID.TID 0000.0001) // =======================================================
(PID.TID 0000.0001) // Field Model Ro_surf (ini_masks_etc)
(PID.TID 0000.0001) // CMIN =          1.000000000000000E+32
(PID.TID 0000.0001) // CMAX =         -1.000000000000000E+32
(PID.TID 0000.0001) // CINT =          0.000000000000000E+00
(PID.TID 0000.0001) // SYMBOLS (CMIN->CMAX): -abcdefghijklmnopqrstuvwxyz+
(PID.TID 0000.0001) //                  0.0: .
(PID.TID 0000.0001) // RANGE I (Lo:Hi:Step):(    -3:    69:     1)
(PID.TID 0000.0001) // RANGE J (Lo:Hi:Step):(    69:    -3:    -1)
(PID.TID 0000.0001) // RANGE K (Lo:Hi:Step):(   1:   1:   1)
(PID.TID 0000.0001) // =======================================================
(PID.TID 0000.0001) // =======================================================
(PID.TID 0000.0001) // END OF FIELD                                          =
(PID.TID 0000.0001) // =======================================================
(PID.TID 0000.0001) 
(PID.TID 0000.0001) // =======================================================
(PID.TID 0000.0001) // Field hFacC at iteration          0
(PID.TID 0000.0001) // CMIN =          1.000000000000000E+00
(PID.TID 0000.0001) // CMAX =          1.000000000000000E+00
(PID.TID 0000.0001) // CINT =          0.000000000000000E+00
(PID.TID 0000.0001) // SYMBOLS (CMIN->CMAX): -abcdefghijklmnopqrstuvwxyz+
(PID.TID 0000.0001) //                  0.0: .
(PID.TID 0000.0001) // RANGE I (Lo:Hi:Step):(    -3:    69:     1)
(PID.TID 0000.0001) // RANGE J (Lo:Hi:Step):(    69:    -3:    -1)
(PID.TID 0000.0001) // RANGE K (Lo:Hi:Step):(   1:   1:   1)
(PID.TID 0000.0001) // =======================================================
(PID.TID 0000.0001) // =======================================================
(PID.TID 0000.0001) // END OF FIELD                                          =
(PID.TID 0000.0001) // =======================================================
(PID.TID 0000.0001) 
(PID.TID 0000.0001) // =======================================================
(PID.TID 0000.0001) // Field hFacW at iteration          0
(PID.TID 0000.0001) // CMIN =          1.000000000000000E+00
(PID.TID 0000.0001) // CMAX =          1.000000000000000E+00
(PID.TID 0000.0001) // CINT =          0.000000000000000E+00
(PID.TID 0000.0001) // SYMBOLS (CMIN->CMAX): -abcdefghijklmnopqrstuvwxyz+
(PID.TID 0000.0001) //                  0.0: .
(PID.TID 0000.0001) // RANGE I (Lo:Hi:Step):(    -3:    69:     1)
(PID.TID 0000.0001) // RANGE J (Lo:Hi:Step):(    69:    -3:    -1)
(PID.TID 0000.0001) // RANGE K (Lo:Hi:Step):(   1:   1:   1)
(PID.TID 0000.0001) // =======================================================
(PID.TID 0000.0001) // =======================================================
(PID.TID 0000.0001) // END OF FIELD                                          =
(PID.TID 0000.0001) // =======================================================
(PID.TID 0000.0001) 
(PID.TID 0000.0001) // =======================================================
(PID.TID 0000.0001) // Field hFacS at iteration          0
(PID.TID 0000.0001) // CMIN =          1.000000000000000E+00
(PID.TID 0000.0001) // CMAX =          1.000000000000000E+00
(PID.TID 0000.0001) // CINT =          0.000000000000000E+00
(PID.TID 0000.0001) // SYMBOLS (CMIN->CMAX): -abcdefghijklmnopqrstuvwxyz+
(PID.TID 0000.0001) //                  0.0: .
(PID.TID 0000.0001) // RANGE I (Lo:Hi:Step):(    -3:    69:     1)
(PID.TID 0000.0001) // RANGE J (Lo:Hi:Step):(    69:    -3:    -1)
(PID.TID 0000.0001) // RANGE K (Lo:Hi:Step):(   1:   1:   1)
(PID.TID 0000.0001) // =======================================================
(PID.TID 0000.0001) // =======================================================
(PID.TID 0000.0001) // END OF FIELD                                          =
(PID.TID 0000.0001) // =======================================================
(PID.TID 0000.0001) 
(PID.TID 0000.0001) GAD_INIT_FIXED: GAD_OlMinSize=  0  0  1
(PID.TID 0000.0001) 
(PID.TID 0000.0001) // ===================================
(PID.TID 0000.0001) // GAD parameters :
(PID.TID 0000.0001) // ===================================
(PID.TID 0000.0001) tempAdvScheme =   /* Temp. Horiz.Advection scheme selector */
(PID.TID 0000.0001)                       2
(PID.TID 0000.0001)     ;
(PID.TID 0000.0001) tempVertAdvScheme =   /* Temp. Vert. Advection scheme selector */
(PID.TID 0000.0001)                       2
(PID.TID 0000.0001)     ;
(PID.TID 0000.0001) tempMultiDimAdvec =   /* use Muti-Dim Advec method for Temp */
(PID.TID 0000.0001)                   F
(PID.TID 0000.0001)     ;
(PID.TID 0000.0001) tempSOM_Advection = /* use 2nd Order Moment Advection for Temp */
(PID.TID 0000.0001)                   F
(PID.TID 0000.0001)     ;
(PID.TID 0000.0001) AdamsBashforthGt = /* apply Adams-Bashforth extrapolation on Gt */
(PID.TID 0000.0001)                   F
(PID.TID 0000.0001)     ;
(PID.TID 0000.0001) AdamsBashforth_T = /* apply Adams-Bashforth extrapolation on Temp */
(PID.TID 0000.0001)                   F
(PID.TID 0000.0001)     ;
(PID.TID 0000.0001) saltAdvScheme =   /* Salt. Horiz.advection scheme selector */
(PID.TID 0000.0001)                       2
(PID.TID 0000.0001)     ;
(PID.TID 0000.0001) saltVertAdvScheme =   /* Salt. Vert. Advection scheme selector */
(PID.TID 0000.0001)                       2
(PID.TID 0000.0001)     ;
(PID.TID 0000.0001) saltMultiDimAdvec =   /* use Muti-Dim Advec method for Salt */
(PID.TID 0000.0001)                   F
(PID.TID 0000.0001)     ;
(PID.TID 0000.0001) saltSOM_Advection = /* use 2nd Order Moment Advection for Salt */
(PID.TID 0000.0001)                   F
(PID.TID 0000.0001)     ;
(PID.TID 0000.0001) AdamsBashforthGs = /* apply Adams-Bashforth extrapolation on Gs */
(PID.TID 0000.0001)                   F
(PID.TID 0000.0001)     ;
(PID.TID 0000.0001) AdamsBashforth_S = /* apply Adams-Bashforth extrapolation on Salt */
(PID.TID 0000.0001)                   F
(PID.TID 0000.0001)     ;
(PID.TID 0000.0001) // ===================================
(PID.TID 0000.0001) 
(PID.TID 0000.0001) // =======================================================
(PID.TID 0000.0001) // External forcing (EXF) configuration >>> START <<<
(PID.TID 0000.0001) // =======================================================
(PID.TID 0000.0001) 
(PID.TID 0000.0001)  EXF general parameters:
(PID.TID 0000.0001) 
(PID.TID 0000.0001) exf_iprec = /* exf file precision */
(PID.TID 0000.0001)                      64
(PID.TID 0000.0001)     ;
(PID.TID 0000.0001) useExfYearlyFields = /* add extension _YEAR to input file names */
(PID.TID 0000.0001)                   F
(PID.TID 0000.0001)     ;
(PID.TID 0000.0001) twoDigitYear = /* use 2-digit year extension */
(PID.TID 0000.0001)                   F
(PID.TID 0000.0001)     ;
(PID.TID 0000.0001) useExfCheckRange = /* check for fields range */
(PID.TID 0000.0001)                   T
(PID.TID 0000.0001)     ;
(PID.TID 0000.0001) diags_opOceWeighted = /* weight flux diags by open-ocean fraction */
(PID.TID 0000.0001)                   T
(PID.TID 0000.0001)     ;
(PID.TID 0000.0001) exf_debugLev = /* select EXF-debug printing level */
(PID.TID 0000.0001)                       2
(PID.TID 0000.0001)     ;
(PID.TID 0000.0001) exf_monFreq  = /* EXF monitor frequency [ s ] */
(PID.TID 0000.0001)                 8.640000000000000E+07
(PID.TID 0000.0001)     ;
(PID.TID 0000.0001) exf_adjMonSelect = /* select group of exf AD-variables to monitor */
(PID.TID 0000.0001)                       1
(PID.TID 0000.0001)     ;
(PID.TID 0000.0001) repeatPeriod = /* period for cycling forcing dataset [ s ] */
(PID.TID 0000.0001)                 1.382400000000000E+06
(PID.TID 0000.0001)     ;
(PID.TID 0000.0001) climTempFreeze= /* Minimum climatological temperature [deg.C] */
(PID.TID 0000.0001)                -1.900000000000000E+00
(PID.TID 0000.0001)     ;
(PID.TID 0000.0001) windStressMax = /* Maximum absolute windstress [ Pa ] */
(PID.TID 0000.0001)                 2.000000000000000E+00
(PID.TID 0000.0001)     ;
(PID.TID 0000.0001) stressIsOnCgrid = /* set u,v_stress on Arakawa C-grid */
(PID.TID 0000.0001)                   F
(PID.TID 0000.0001)     ;
(PID.TID 0000.0001) rotateStressOnAgrid = /* rotate u,v_stress on Arakawa A-grid */
(PID.TID 0000.0001)                   F
(PID.TID 0000.0001)     ;
(PID.TID 0000.0001) cen2kel = /* conversion of deg. Centigrade to Kelvin [K] */
(PID.TID 0000.0001)                 2.731500000000000E+02
(PID.TID 0000.0001)     ;
(PID.TID 0000.0001) gravity_mks= /* gravitational acceleration [m/s^2] */
(PID.TID 0000.0001)                 9.810000000000000E+00
(PID.TID 0000.0001)     ;
(PID.TID 0000.0001) atmrho =  /* mean atmospheric density [kg/m^3] */
(PID.TID 0000.0001)                 1.300000000000000E+00
(PID.TID 0000.0001)     ;
(PID.TID 0000.0001) atmcp =  /* mean atmospheric specific heat [J/kg/K] */
(PID.TID 0000.0001)                 1.005000000000000E+03
(PID.TID 0000.0001)     ;
(PID.TID 0000.0001) flamb =  /* latent heat of evaporation [J/kg] */
(PID.TID 0000.0001)                 2.500000000000000E+06
(PID.TID 0000.0001)     ;
(PID.TID 0000.0001) flami =  /* latent heat of pure-ice melting [J/kg] */
(PID.TID 0000.0001)                 3.340000000000000E+05
(PID.TID 0000.0001)     ;
(PID.TID 0000.0001) cvapor_fac = /* const. for Saturation calculation [?] */
(PID.TID 0000.0001)                 6.403800000000000E+05
(PID.TID 0000.0001)     ;
(PID.TID 0000.0001) cvapor_exp = /* const. for Saturation calculation [?] */
(PID.TID 0000.0001)                 5.107400000000000E+03
(PID.TID 0000.0001)     ;
(PID.TID 0000.0001) cvapor_fac_ice= /* const. for Saturation calculation [?] */
(PID.TID 0000.0001)                 1.163780000000000E+07
(PID.TID 0000.0001)     ;
(PID.TID 0000.0001) cvapor_exp_ice= /* const. for Saturation calculation [?] */
(PID.TID 0000.0001)                 5.897800000000000E+03
(PID.TID 0000.0001)     ;
(PID.TID 0000.0001) humid_fac = /* humidity coef. in virtual temp. [(kg/kg)^-1] */
(PID.TID 0000.0001)                 6.060000000000000E-01
(PID.TID 0000.0001)     ;
(PID.TID 0000.0001) gamma_blk = /* adiabatic lapse rate [?] */
(PID.TID 0000.0001)                 1.000000000000000E-02
(PID.TID 0000.0001)     ;
(PID.TID 0000.0001) saltsat = /* reduction of Qsat over salty water [-] */
(PID.TID 0000.0001)                 9.800000000000000E-01
(PID.TID 0000.0001)     ;
(PID.TID 0000.0001) noNegativeEvap = /* prevent negative Evaporation */
(PID.TID 0000.0001)                   F
(PID.TID 0000.0001)     ;
(PID.TID 0000.0001) sstExtrapol = /* extrapolation coeff from lev. 1 & 2 to surf [-] */
(PID.TID 0000.0001)                 0.000000000000000E+00
(PID.TID 0000.0001)     ;
(PID.TID 0000.0001) cDrag_1 = /* coef used in drag calculation [?] */
(PID.TID 0000.0001)                 2.700000000000000E-03
(PID.TID 0000.0001)     ;
(PID.TID 0000.0001) cDrag_2 = /* coef used in drag calculation [?] */
(PID.TID 0000.0001)                 1.420000000000000E-04
(PID.TID 0000.0001)     ;
(PID.TID 0000.0001) cDrag_3 = /* coef used in drag calculation [?] */
(PID.TID 0000.0001)                 7.640000000000000E-05
(PID.TID 0000.0001)     ;
(PID.TID 0000.0001) cStanton_1 = /* coef used in Stanton number calculation [?] */
(PID.TID 0000.0001)                 3.270000000000000E-02
(PID.TID 0000.0001)     ;
(PID.TID 0000.0001) cStanton_2 = /* coef used in Stanton number calculation [?] */
(PID.TID 0000.0001)                 1.800000000000000E-02
(PID.TID 0000.0001)     ;
(PID.TID 0000.0001) cDalton = /* coef used in Dalton number calculation [?] */
(PID.TID 0000.0001)                 3.460000000000000E-02
(PID.TID 0000.0001)     ;
(PID.TID 0000.0001) exf_scal_BulkCdn= /* Drag coefficient scaling factor [-] */
(PID.TID 0000.0001)                 1.000000000000000E+00
(PID.TID 0000.0001)     ;
(PID.TID 0000.0001) zolmin = /* minimum stability parameter [?] */
(PID.TID 0000.0001)                -1.000000000000000E+02
(PID.TID 0000.0001)     ;
(PID.TID 0000.0001) psim_fac = /* coef used in turbulent fluxes calculation [-] */
(PID.TID 0000.0001)                 5.000000000000000E+00
(PID.TID 0000.0001)     ;
(PID.TID 0000.0001) zref =  /* reference height [ m ] */
(PID.TID 0000.0001)                 1.000000000000000E+01
(PID.TID 0000.0001)     ;
(PID.TID 0000.0001) hu =  /* height of mean wind [ m ] */
(PID.TID 0000.0001)                 1.000000000000000E+01
(PID.TID 0000.0001)     ;
(PID.TID 0000.0001) ht =  /* height of mean temperature [ m ] */
(PID.TID 0000.0001)                 2.000000000000000E+00
(PID.TID 0000.0001)     ;
(PID.TID 0000.0001) hq =  /* height of mean spec.humidity [ m ] */
(PID.TID 0000.0001)                 2.000000000000000E+00
(PID.TID 0000.0001)     ;
(PID.TID 0000.0001) uMin = /* minimum wind speed [m/s] */
(PID.TID 0000.0001)                 5.000000000000000E-01
(PID.TID 0000.0001)     ;
(PID.TID 0000.0001) useStabilityFct_overIce= /* transfert Coeffs over sea-ice depend on stability */
(PID.TID 0000.0001)                   F
(PID.TID 0000.0001)     ;
(PID.TID 0000.0001) exf_iceCd = /* drag coefficient over sea-ice (fixed) [-] */
(PID.TID 0000.0001)                 1.630000000000000E-03
(PID.TID 0000.0001)     ;
(PID.TID 0000.0001) exf_iceCe = /* transfert coeff. over sea-ice, for Evap (fixed) [-] */
(PID.TID 0000.0001)                 1.630000000000000E-03
(PID.TID 0000.0001)     ;
(PID.TID 0000.0001) exf_iceCh = /* transfert coeff. over sea-ice, Sens.Heat.(fixed)[-] */
(PID.TID 0000.0001)                 1.630000000000000E-03
(PID.TID 0000.0001)     ;
(PID.TID 0000.0001) exf_albedo =  /* Sea-water albedo [-] */
(PID.TID 0000.0001)                 1.000000000000000E-01
(PID.TID 0000.0001)     ;
(PID.TID 0000.0001) useExfZenAlbedo = /* Sea-water albedo varies with zenith angle */
(PID.TID 0000.0001)                   F
(PID.TID 0000.0001)     ;
(PID.TID 0000.0001) select_ZenAlbedo = /* Sea-water albedo computation method */
(PID.TID 0000.0001)                       0
(PID.TID 0000.0001)     ;
(PID.TID 0000.0001) useExfZenIncoming = /* compute incoming solar radiation */
(PID.TID 0000.0001)                   F
(PID.TID 0000.0001)     ;
(PID.TID 0000.0001) ocean_emissivity = /* longwave ocean-surface emissivity [-] */
(PID.TID 0000.0001)                 9.700176366843034E-01
(PID.TID 0000.0001)     ;
(PID.TID 0000.0001) ice_emissivity = /* longwave seaice emissivity [-] */
(PID.TID 0000.0001)                 9.500000000000000E-01
(PID.TID 0000.0001)     ;
(PID.TID 0000.0001) snow_emissivity = /* longwave snow  emissivity [-] */
(PID.TID 0000.0001)                 9.500000000000000E-01
(PID.TID 0000.0001)     ;
(PID.TID 0000.0001) 
(PID.TID 0000.0001)  EXF main CPP flags:
(PID.TID 0000.0001) 
(PID.TID 0000.0001) // USE_EXF_INTERPOLATION:          NOT defined
(PID.TID 0000.0001) // ALLOW_ATM_TEMP:                     defined
(PID.TID 0000.0001) // ALLOW_ATM_WIND (useAtmWind):        defined
(PID.TID 0000.0001) // ALLOW_DOWNWARD_RADIATION:           defined
(PID.TID 0000.0001) // ALLOW_BULKFORMULAE:                 defined
(PID.TID 0000.0001) 
(PID.TID 0000.0001)    Zonal wind forcing starts at                          0.
(PID.TID 0000.0001)    Zonal wind forcing period is                      10800.
(PID.TID 0000.0001)    Zonal wind forcing repeat-cycle is              1382400.
(PID.TID 0000.0001)    Zonal wind forcing is read from file:
(PID.TID 0000.0001)    >> Uwindfield_shifted_8000.bin <<
(PID.TID 0000.0001) 
(PID.TID 0000.0001)    Meridional wind forcing starts at                     0.
(PID.TID 0000.0001)    Meridional wind forcing period is                 10800.
(PID.TID 0000.0001)    Meridional wind forcing repeat-cycle is         1382400.
(PID.TID 0000.0001)    Meridional wind forcing is read from file:
(PID.TID 0000.0001)    >> Vwindfield_shifted_8000.bin <<
(PID.TID 0000.0001) 
(PID.TID 0000.0001) // ALLOW_READ_TURBFLUXES:          NOT defined
(PID.TID 0000.0001) // EXF_READ_EVAP:                  NOT defined
(PID.TID 0000.0001) // ALLOW_RUNOFF:                       defined
(PID.TID 0000.0001) // ALLOW_RUNOFTEMP:                NOT defined
(PID.TID 0000.0001) // ALLOW_SALTFLX:                      defined
(PID.TID 0000.0001) 
(PID.TID 0000.0001) // =======================================================
(PID.TID 0000.0001) // External forcing (EXF) climatology configuration :
(PID.TID 0000.0001) // =======================================================
(PID.TID 0000.0001) 
(PID.TID 0000.0001) // ALLOW_CLIMSST_RELAXATION:           defined
(PID.TID 0000.0001)    climsst relaxation is NOT used
(PID.TID 0000.0001) 
(PID.TID 0000.0001) // ALLOW_CLIMSSS_RELAXATION:           defined
(PID.TID 0000.0001)    climsss relaxation is NOT used
(PID.TID 0000.0001) 
(PID.TID 0000.0001) // =======================================================
(PID.TID 0000.0001) // External forcing (EXF) configuration  >>> END <<<
(PID.TID 0000.0001) // =======================================================
(PID.TID 0000.0001) 
(PID.TID 0000.0001) // =======================================================
(PID.TID 0000.0001) // Seaice configuration (SEAICE_PARM01) >>> START <<<
(PID.TID 0000.0001) // =======================================================
(PID.TID 0000.0001) 
(PID.TID 0000.0001)    Seaice time stepping configuration   > START <
(PID.TID 0000.0001)    ----------------------------------------------
(PID.TID 0000.0001) SEAICE_deltaTtherm= /* thermodynamic timestep */
(PID.TID 0000.0001)                 2.500000000000000E+00
(PID.TID 0000.0001)     ;
(PID.TID 0000.0001) SEAICE_deltaTdyn  = /* dynamic timestep */
(PID.TID 0000.0001)                 2.500000000000000E+00
(PID.TID 0000.0001)     ;
(PID.TID 0000.0001) SEAICE_deltaTevp  = /* EVP timestep */
(PID.TID 0000.0001)                 1.234567000000000E+05
(PID.TID 0000.0001)     ;
(PID.TID 0000.0001) SEAICEuseBDF2  = /* use backw. differencing for mom. eq. */
(PID.TID 0000.0001)                   F
(PID.TID 0000.0001)     ;
(PID.TID 0000.0001) SEAICEupdateOceanStress= /* update Ocean surf. stress */
(PID.TID 0000.0001)                   T
(PID.TID 0000.0001)     ;
(PID.TID 0000.0001) SEAICErestoreUnderIce  = /* restore T and S under ice */
(PID.TID 0000.0001)                   F
(PID.TID 0000.0001)     ;
(PID.TID 0000.0001) 
(PID.TID 0000.0001)    Seaice dynamics configuration   > START <
(PID.TID 0000.0001)    ------------------------------------------
(PID.TID 0000.0001) SEAICEuseDYNAMICS = /* use dynamics */
(PID.TID 0000.0001)                   T
(PID.TID 0000.0001)     ;
(PID.TID 0000.0001) model grid type   = /* type of sea ice model grid */
(PID.TID 0000.0001)               'C-GRID'
(PID.TID 0000.0001)     ;
(PID.TID 0000.0001) SEAICEuseStrImpCpl = /* use strongly implicit coupling */
(PID.TID 0000.0001)                   F
(PID.TID 0000.0001)     ;
(PID.TID 0000.0001) SEAICEusePicardAsPrecon = /* Picard as preconditioner */
(PID.TID 0000.0001)                   F
(PID.TID 0000.0001)     ;
(PID.TID 0000.0001) SEAICEuseLSR      = /* use default Picard-LSR solver */
(PID.TID 0000.0001)                   F
(PID.TID 0000.0001)     ;
(PID.TID 0000.0001) SEAICEuseKrylov   = /* use Picard-Krylov solver */
(PID.TID 0000.0001)                   T
(PID.TID 0000.0001)     ;
(PID.TID 0000.0001) SEAICEuseEVP      = /* use EVP solver rather than LSR */
(PID.TID 0000.0001)                   F
(PID.TID 0000.0001)     ;
(PID.TID 0000.0001) SEAICEuseJFNK     = /* use JFNK solver */
(PID.TID 0000.0001)                   F
(PID.TID 0000.0001)     ;
(PID.TID 0000.0001) SEAICEuseMEB      = /* use MEB rheology */
(PID.TID 0000.0001)                   T
(PID.TID 0000.0001)     ;
(PID.TID 0000.0001) SEAICENoisyIceStrength= /* Noise on Sea ice strength*/
(PID.TID 0000.0001)                   F
(PID.TID 0000.0001)     ;
(PID.TID 0000.0001) OCEAN_drag        = /* air-ocean drag coefficient */
(PID.TID 0000.0001)                 1.000000000000000E-03
(PID.TID 0000.0001)     ;
(PID.TID 0000.0001) SEAICE_drag       = /* air-ice drag coefficient */
(PID.TID 0000.0001)                 1.200000000000000E-03
(PID.TID 0000.0001)     ;
(PID.TID 0000.0001) SEAICE_drag_south      = /* Southern Ocean SEAICE_drag */
(PID.TID 0000.0001)                 1.200000000000000E-03
(PID.TID 0000.0001)     ;
(PID.TID 0000.0001) SEAICE_waterDrag  = /* water-ice drag (no units) */
(PID.TID 0000.0001)                 5.500000000000000E-03
(PID.TID 0000.0001)     ;
(PID.TID 0000.0001) SEAICE_waterDrag_south = /* Southern Ocean waterDrag (no units) */
(PID.TID 0000.0001)                 5.500000000000000E-03
(PID.TID 0000.0001)     ;
(PID.TID 0000.0001) SEAICEdWatMin = /* minimum linear water-ice drag (in m/s) */
(PID.TID 0000.0001)                 2.500000000000000E-01
(PID.TID 0000.0001)     ;
(PID.TID 0000.0001) SEAICEuseTilt     = /* include surface tilt in dyna. */
(PID.TID 0000.0001)                   T
(PID.TID 0000.0001)     ;
(PID.TID 0000.0001) SEAICEuseTEM      = /* use truncated ellipse rheology */
(PID.TID 0000.0001)                   F
(PID.TID 0000.0001)     ;
(PID.TID 0000.0001) SEAICEmebNormCorr = /* use normal stress correction */
(PID.TID 0000.0001)                   F
(PID.TID 0000.0001)     ;
(PID.TID 0000.0001) SEAICE_strength   = /* undamaged elasticity modulus */
(PID.TID 0000.0001)                 5.000000000000000E+08
(PID.TID 0000.0001)     ;
(PID.TID 0000.0001) SEAICEpoissonRatio = /* sea ice Poisson ratio */
(PID.TID 0000.0001)                 3.000000119209290E-01
(PID.TID 0000.0001)     ;
(PID.TID 0000.0001) SEAICEviscosity = /* MEB apparent viscosity */
(PID.TID 0000.0001)                 5.000000000000000E+15
(PID.TID 0000.0001)     ;
(PID.TID 0000.0001) SEAICEcohesion = /* max. cohesion in pure shear */
(PID.TID 0000.0001)                 2.500000000000000E+02
(PID.TID 0000.0001)     ;
(PID.TID 0000.0001) SEAICEdamageParm = /* exponent alpha of damage*/
(PID.TID 0000.0001)                 4.000000000000000E+00
(PID.TID 0000.0001)     ;
(PID.TID 0000.0001) SEAICEdamageTime = /* damage time scale */
(PID.TID 0000.0001)                 8.000000000000000E+00
(PID.TID 0000.0001)     ;
(PID.TID 0000.0001) SEAICEdamageMin = /* stability parameter */
(PID.TID 0000.0001)                 1.000000000000000E-16
(PID.TID 0000.0001)     ;
(PID.TID 0000.0001) SEAICEtanThetaCorr = /* MEB tan(correction path angle) */
(PID.TID 0000.0001)                 1.234567000000000E+05
(PID.TID 0000.0001)     ;
(PID.TID 0000.0001) SEAICEintFrictCoeff = /* MEB interal friction coeff. */
(PID.TID 0000.0001)                 7.000000000000000E-01
(PID.TID 0000.0001)     ;
(PID.TID 0000.0001) SEAICEmohrCoulombSlope = /* slope of M.-C. criterion in stress invariants space */
(PID.TID 0000.0001)                 5.734623443633283E-01
(PID.TID 0000.0001)     ;
(PID.TID 0000.0001) SEAICEhealingTime = /* damage healing time scale */
(PID.TID 0000.0001)                 1.000000000000000E+05
(PID.TID 0000.0001)     ;
(PID.TID 0000.0001) SEAICE_cStar      = /* sea-ice strength parameter cStar */
(PID.TID 0000.0001)                 2.000000000000000E+01
(PID.TID 0000.0001)     ;
(PID.TID 0000.0001) SEAICEpressReplFac= /* press. replacement method factor */
(PID.TID 0000.0001)                 1.000000000000000E+00
(PID.TID 0000.0001)     ;
(PID.TID 0000.0001) SEAICE_tensilFac  = /* sea-ice tensile strength factor */
(PID.TID 0000.0001)                 0.000000000000000E+00
(PID.TID 0000.0001)     ;
(PID.TID 0000.0001) SEAICE_tensilDepth= /* crit. depth for tensile strength */
(PID.TID 0000.0001)                 0.000000000000000E+00
(PID.TID 0000.0001)     ;
(PID.TID 0000.0001) SEAICEpresH0   = /* sea-ice strength Heff threshold */
(PID.TID 0000.0001)                 1.000000000000000E+00
(PID.TID 0000.0001)     ;
(PID.TID 0000.0001) SEAICEpresPow0 = /* exponent for Heff<SEAICEpresH0 */
(PID.TID 0000.0001)                       1
(PID.TID 0000.0001)     ;
(PID.TID 0000.0001) SEAICEpresPow1 = /* exponent for Heff>SEAICEpresH0 */
(PID.TID 0000.0001)                       1
(PID.TID 0000.0001)     ;
(PID.TID 0000.0001) SEAICEetaZmethod = /* method computing eta at Z-point */
(PID.TID 0000.0001)                       3
(PID.TID 0000.0001)     ;
(PID.TID 0000.0001) SEAICE_zetaMaxFac = /* factor for upper viscosity bound */
(PID.TID 0000.0001)                 2.500000000000000E+08
(PID.TID 0000.0001)     ;
(PID.TID 0000.0001) SEAICE_zetaMin    = /* lower bound for viscosity */
(PID.TID 0000.0001)                 0.000000000000000E+00
(PID.TID 0000.0001)     ;
(PID.TID 0000.0001) SEAICE_eccen    = /* elliptical yield curve eccent */
(PID.TID 0000.0001)                 2.000000000000000E+00
(PID.TID 0000.0001)     ;
(PID.TID 0000.0001) SEAICEstressFactor    = /* wind stress scaling factor */
(PID.TID 0000.0001)                 1.000000000000000E+00
(PID.TID 0000.0001)     ;
(PID.TID 0000.0001) SEAICE_airTurnAngle    = /* air-ice turning angle */
(PID.TID 0000.0001)                 0.000000000000000E+00
(PID.TID 0000.0001)     ;
(PID.TID 0000.0001) SEAICE_waterTurnAngle  = /* ice-water turning angle */
(PID.TID 0000.0001)                 0.000000000000000E+00
(PID.TID 0000.0001)     ;
(PID.TID 0000.0001) SEAICEuseMetricTerms = /* use metric terms */
(PID.TID 0000.0001)                   T
(PID.TID 0000.0001)     ;
(PID.TID 0000.0001) SEAICE_no_slip    = /* no slip boundary conditions */
(PID.TID 0000.0001)                   T
(PID.TID 0000.0001)     ;
(PID.TID 0000.0001) SEAICE_2ndOrderBC = /* 2nd order no slip boundary conditions */
(PID.TID 0000.0001)                   F
(PID.TID 0000.0001)     ;
(PID.TID 0000.0001) SEAICE_clipVeloctities = /* impose max. vels. */
(PID.TID 0000.0001)                   F
(PID.TID 0000.0001)     ;
(PID.TID 0000.0001) useHB87stressCoupling  = /* altern. ice-ocean stress */
(PID.TID 0000.0001)                   F
(PID.TID 0000.0001)     ;
(PID.TID 0000.0001) SEAICEscaleSurfStress  = /* scale atm. and ocean-surface stress with AREA */
(PID.TID 0000.0001)                   T
(PID.TID 0000.0001)     ;
(PID.TID 0000.0001) SEAICE_maskRHS    = /* mask RHS of solver */
(PID.TID 0000.0001)                   F
(PID.TID 0000.0001)     ;
(PID.TID 0000.0001) SEAICEaddSnowMass = /* add snow mass to seaiceMassC/U/V */
(PID.TID 0000.0001)                   T
(PID.TID 0000.0001)     ;
(PID.TID 0000.0001) LSR_mixIniGuess = /* mix free-drift sol. into LSR initial Guess */
(PID.TID 0000.0001)                      -1
(PID.TID 0000.0001)     ;
(PID.TID 0000.0001) SEAICE_LSRrelaxU  = /* LSR solver: relaxation parameter */
(PID.TID 0000.0001)                 9.500000000000000E-01
(PID.TID 0000.0001)     ;
(PID.TID 0000.0001) SEAICE_LSRrelaxV  = /* LSR solver: relaxation parameter */
(PID.TID 0000.0001)                 9.500000000000000E-01
(PID.TID 0000.0001)     ;
(PID.TID 0000.0001) LSR_ERROR         = /* sets accuracy of LSR solver */
(PID.TID 0000.0001)                 1.000000000000000E-05
(PID.TID 0000.0001)     ;
(PID.TID 0000.0001) SOLV_NCHECK       = /* test interval for LSR solver */
(PID.TID 0000.0001)                       2
(PID.TID 0000.0001)     ;
(PID.TID 0000.0001) SEAICEuseMultiTileSolver = /* use full domain tri-diag solver */
(PID.TID 0000.0001)                   F
(PID.TID 0000.0001)     ;
(PID.TID 0000.0001) SEAICE_OLx = /* overlap for LSR/preconditioner */
(PID.TID 0000.0001)                       2
(PID.TID 0000.0001)     ;
(PID.TID 0000.0001) SEAICE_OLy = /* overlap for LSR/preconditioner */
(PID.TID 0000.0001)                       2
(PID.TID 0000.0001)     ;
(PID.TID 0000.0001) SEAICEnonLinIterMax = /* max. number of nonlinear solver steps */
(PID.TID 0000.0001)                     100
(PID.TID 0000.0001)     ;
(PID.TID 0000.0001) SEAICElinearIterMax = /* max. number of linear solver steps */
(PID.TID 0000.0001)                      50
(PID.TID 0000.0001)     ;
(PID.TID 0000.0001) SEAICEnonLinTol     = /* non-linear solver tolerance */
(PID.TID 0000.0001)                 1.000000000000000E-12
(PID.TID 0000.0001)     ;
(PID.TID 0000.0001) SEAICEpreconLinIter = /* number of linear preconditioner steps */
(PID.TID 0000.0001)                      10
(PID.TID 0000.0001)     ;
(PID.TID 0000.0001) SEAICEpreconNL_Iter = /* number of non-linear preconditioner steps */
(PID.TID 0000.0001)                       0
(PID.TID 0000.0001)     ;
(PID.TID 0000.0001) SEAICEuseIMEX  = /* IMEX scheme with JFNK-solver */
(PID.TID 0000.0001)                   T
(PID.TID 0000.0001)     ;
(PID.TID 0000.0001) 
(PID.TID 0000.0001)    Seaice advection diffusion config,   > START <
(PID.TID 0000.0001)    -----------------------------------------------
(PID.TID 0000.0001) SEAICEmomAdvection = /* advect sea ice momentum */
(PID.TID 0000.0001)                   F
(PID.TID 0000.0001)     ;
(PID.TID 0000.0001) SEAICEadvHeff = /* advect effective ice thickness */
(PID.TID 0000.0001)                   T
(PID.TID 0000.0001)     ;
(PID.TID 0000.0001) SEAICEadvArea = /* advect fractional ice area */
(PID.TID 0000.0001)                   T
(PID.TID 0000.0001)     ;
(PID.TID 0000.0001) SEAICEadvSnow = /* advect snow layer together with ice */
(PID.TID 0000.0001)                   T
(PID.TID 0000.0001)     ;
(PID.TID 0000.0001) SEAICEadvStress = /* advect stress tensor */
(PID.TID 0000.0001)                   F
(PID.TID 0000.0001)     ;
(PID.TID 0000.0001) SEAICEadvScheme   = /* advection scheme for ice */
(PID.TID 0000.0001)                      77
(PID.TID 0000.0001)     ;
(PID.TID 0000.0001) SEAICEadvSchArea   = /* advection scheme for area */
(PID.TID 0000.0001)                      77
(PID.TID 0000.0001)     ;
(PID.TID 0000.0001) SEAICEadvSchHeff   = /* advection scheme for thickness */
(PID.TID 0000.0001)                      77
(PID.TID 0000.0001)     ;
(PID.TID 0000.0001) SEAICEadvSchSnow   = /* advection scheme for snow */
(PID.TID 0000.0001)                      77
(PID.TID 0000.0001)     ;
(PID.TID 0000.0001) SEAICEdiffKhArea   = /* diffusivity (m^2/s) for area */
(PID.TID 0000.0001)                 0.000000000000000E+00
(PID.TID 0000.0001)     ;
(PID.TID 0000.0001) SEAICEdiffKhHeff   = /* diffusivity (m^2/s) for heff */
(PID.TID 0000.0001)                 0.000000000000000E+00
(PID.TID 0000.0001)     ;
(PID.TID 0000.0001) SEAICEdiffKhSnow   = /* diffusivity (m^2/s) for snow */
(PID.TID 0000.0001)                 0.000000000000000E+00
(PID.TID 0000.0001)     ;
(PID.TID 0000.0001) DIFF1             = /* parameter used in advect.F [m/s] */
(PID.TID 0000.0001)                 0.000000000000000E+00
(PID.TID 0000.0001)     ;
(PID.TID 0000.0001) 
(PID.TID 0000.0001)    Seaice thermodynamics configuration   > START <
(PID.TID 0000.0001)    -----------------------------------------------
(PID.TID 0000.0001) SEAICE_rhoIce     = /* density of sea ice (kg/m3) */
(PID.TID 0000.0001)                 9.000000000000000E+02
(PID.TID 0000.0001)     ;
(PID.TID 0000.0001) SEAICE_rhoSnow    = /* density of snow (kg/m3) */
(PID.TID 0000.0001)                 3.300000000000000E+02
(PID.TID 0000.0001)     ;
(PID.TID 0000.0001) SEAICE_rhoAir     = /* density of air (kg/m3) */
(PID.TID 0000.0001)                 1.300000000000000E+00
(PID.TID 0000.0001)     ;
(PID.TID 0000.0001) usePW79thermodynamics  = /* default 0-layer TD */
(PID.TID 0000.0001)                   F
(PID.TID 0000.0001)     ;
(PID.TID 0000.0001)    pkg/seaice thermodynamics is OFF
(PID.TID 0000.0001) 
(PID.TID 0000.0001)    Seaice initialization and IO config.,   > START <
(PID.TID 0000.0001)    -------------------------------------------------
(PID.TID 0000.0001) SEAICE_initialHEFF= /* initial sea-ice thickness */
(PID.TID 0000.0001)                 0.000000000000000E+00
(PID.TID 0000.0001)     ;
(PID.TID 0000.0001) AreaFile = /* Initial ice concentration File */
(PID.TID 0000.0001)               'const_1.0_8000.bin'
(PID.TID 0000.0001)     ;
(PID.TID 0000.0001) HeffFile = /* Initial effective ice thickness File */
(PID.TID 0000.0001)               'thickness_aniso_8000.bin'
(PID.TID 0000.0001)     ;
(PID.TID 0000.0001) NoisFile = /* Noise field File */
(PID.TID 0000.0001)               ''
(PID.TID 0000.0001)     ;
(PID.TID 0000.0001) CohesFile = /* Initial sea ice cohesion File */
(PID.TID 0000.0001)               ''
(PID.TID 0000.0001)     ;
(PID.TID 0000.0001) HsnowFile = /* Initial snow thickness File */
(PID.TID 0000.0001)               'const_00_8000.bin'
(PID.TID 0000.0001)     ;
(PID.TID 0000.0001) uIceFile = /* Initial U-ice velocity File */
(PID.TID 0000.0001)               ''
(PID.TID 0000.0001)     ;
(PID.TID 0000.0001) vIceFile = /* Initial V-ice velocity File */
(PID.TID 0000.0001)               ''
(PID.TID 0000.0001)     ;
(PID.TID 0000.0001) SEAICEwriteState  = /* write sea ice state to file */
(PID.TID 0000.0001)                   T
(PID.TID 0000.0001)     ;
(PID.TID 0000.0001) SEAICE_monFreq  = /* monitor frequency */
(PID.TID 0000.0001)                 1.000000000000000E+00
(PID.TID 0000.0001)     ;
(PID.TID 0000.0001) SEAICE_dumpFreq   = /* dump frequency */
(PID.TID 0000.0001)                 1.000000000000000E+00
(PID.TID 0000.0001)     ;
(PID.TID 0000.0001) SEAICE_taveFreq   = /* time-averaging frequency */
(PID.TID 0000.0001)                 0.000000000000000E+00
(PID.TID 0000.0001)     ;
(PID.TID 0000.0001) SEAICE_mon_stdio  = /* write monitor to std-outp */
(PID.TID 0000.0001)                   T
(PID.TID 0000.0001)     ;
(PID.TID 0000.0001) SEAICE_dump_mdsio = /* write snap-shot   using MDSIO */
(PID.TID 0000.0001)                   T
(PID.TID 0000.0001)     ;
(PID.TID 0000.0001) SEAICE_tave_mdsio = /* write TimeAverage using MDSIO */
(PID.TID 0000.0001)                   T
(PID.TID 0000.0001)     ;
(PID.TID 0000.0001) SEAICE_mon_mnc    = /* write monitor to netcdf file */
(PID.TID 0000.0001)                   F
(PID.TID 0000.0001)     ;
(PID.TID 0000.0001) SEAICE_dump_mnc   = /* write snap-shot   using MNC */
(PID.TID 0000.0001)                   F
(PID.TID 0000.0001)     ;
(PID.TID 0000.0001) SEAICE_tave_mnc   = /* write TimeAverage using MNC */
(PID.TID 0000.0001)                   F
(PID.TID 0000.0001)     ;
(PID.TID 0000.0001) 
(PID.TID 0000.0001)    Seaice regularization numbers,   > START <
(PID.TID 0000.0001)    -----------------------------------------------
(PID.TID 0000.0001) SEAICE_deltaMin   = /* reduce singularities in Delta */
(PID.TID 0000.0001)                 2.000000000000000E-09
(PID.TID 0000.0001)     ;
(PID.TID 0000.0001) SEAICE_EPS        = /* small number */
(PID.TID 0000.0001)                 1.000000000000000E-10
(PID.TID 0000.0001)     ;
(PID.TID 0000.0001) SEAICE_EPS_SQ     = /* small number squared */
(PID.TID 0000.0001)                 1.000000000000000E-20
(PID.TID 0000.0001)     ;
(PID.TID 0000.0001) SEAICE_area_reg   = /* reduce derivative singularities */
(PID.TID 0000.0001)                 1.000000000000000E-05
(PID.TID 0000.0001)     ;
(PID.TID 0000.0001) SEAICE_hice_reg   = /* reduce derivative singularities */
(PID.TID 0000.0001)                 5.000000000000000E-02
(PID.TID 0000.0001)     ;
(PID.TID 0000.0001) SEAICE_area_floor = /* reduce derivative singularities */
(PID.TID 0000.0001)                 1.000000000000000E-05
(PID.TID 0000.0001)     ;
(PID.TID 0000.0001) 
(PID.TID 0000.0001) // =======================================================
(PID.TID 0000.0001) // Seaice configuration (SEAICE_PARM01) >>> END <<<
(PID.TID 0000.0001) // =======================================================
(PID.TID 0000.0001) 
(PID.TID 0000.0001) ------------------------------------------------------------
(PID.TID 0000.0001) DIAGNOSTICS_SET_LEVELS: done
(PID.TID 0000.0001)  Total Nb of available Diagnostics: ndiagt=   233
(PID.TID 0000.0001)  write list of available Diagnostics to file: available_diagnostics.log
(PID.TID 0000.0001) SETDIAG: Allocate  1 x  1 Levels for Diagnostic #   163 SIuice
(PID.TID 0000.0001) SETDIAG: Allocate  1 x  1 Levels for Diagnostic #   164 SIvice
(PID.TID 0000.0001) SETDIAG: Allocate  1 x  1 Levels for Diagnostic #   149 SIheff
(PID.TID 0000.0001) SETDIAG: Allocate  1 x  1 Levels for Diagnostic #   146 SIarea
(PID.TID 0000.0001) SETDIAG: Allocate  1 x  1 Levels for Diagnostic #   228 SIshear
(PID.TID 0000.0001) SETDIAG: Allocate  1 x  1 Levels for Diagnostic #   233 SIcohes
(PID.TID 0000.0001) SETDIAG: Allocate  1 x  1 Levels for Diagnostic #   221 SIsig1
(PID.TID 0000.0001) SETDIAG: Allocate  1 x  1 Levels for Diagnostic #   222 SIsig2
(PID.TID 0000.0001) SETDIAG: Allocate  1 x  1 Levels for Diagnostic #   231 SIdamage
(PID.TID 0000.0001) SETDIAG: Allocate  1 x  1 Levels for Diagnostic #   165 SItaux
(PID.TID 0000.0001) SETDIAG: Allocate  1 x  1 Levels for Diagnostic #   166 SItauy
(PID.TID 0000.0001) SETDIAG: Allocate  1 x  1 Levels for Diagnostic #   133 EXFuwind
(PID.TID 0000.0001) SETDIAG: Allocate  1 x  1 Levels for Diagnostic #   134 EXFvwind
(PID.TID 0000.0001)   space allocated for all diagnostics:      13 levels
(PID.TID 0000.0001)   set mate pointer for diag #   163  SIuice   , Parms: UU      M1 , mate:   164
(PID.TID 0000.0001)   set mate pointer for diag #   164  SIvice   , Parms: VV      M1 , mate:   163
(PID.TID 0000.0001)   set mate pointer for diag #   165  SItaux   , Parms: UU      U1 , mate:   166
(PID.TID 0000.0001)   set mate pointer for diag #   166  SItauy   , Parms: VV      U1 , mate:   165
(PID.TID 0000.0001) DIAGNOSTICS_SET_POINTERS: Set levels for Outp.Stream: snapshot
(PID.TID 0000.0001)  Levels:       1.
(PID.TID 0000.0001) DIAGNOSTICS_SET_POINTERS: done
(PID.TID 0000.0001) ------------------------------------------------------------
(PID.TID 0000.0001) DIAGSTATS_SET_REGIONS: define no region
(PID.TID 0000.0001) ------------------------------------------------------------
(PID.TID 0000.0001)   space allocated for all stats-diags:       0 levels
(PID.TID 0000.0001) DIAGSTATS_SET_POINTERS: done
(PID.TID 0000.0001) ------------------------------------------------------------
(PID.TID 0000.0001) %MON fCori_max                    =   1.5116000000000E-04
(PID.TID 0000.0001) %MON fCori_min                    =   1.4604000000000E-04
(PID.TID 0000.0001) %MON fCori_mean                   =   1.4860000000000E-04
(PID.TID 0000.0001) %MON fCori_sd                     =   1.5009330431435E-06
(PID.TID 0000.0001) %MON fCoriG_max                   =   1.5112000000000E-04
(PID.TID 0000.0001) %MON fCoriG_min                   =   1.4600000000000E-04
(PID.TID 0000.0001) %MON fCoriG_mean                  =   1.4856000000000E-04
(PID.TID 0000.0001) %MON fCoriG_sd                    =   1.5009330431435E-06
(PID.TID 0000.0001) %MON fCoriCos_max                 =   0.0000000000000E+00
(PID.TID 0000.0001) %MON fCoriCos_min                 =   0.0000000000000E+00
(PID.TID 0000.0001) %MON fCoriCos_mean                =   0.0000000000000E+00
(PID.TID 0000.0001) %MON fCoriCos_sd                  =   0.0000000000000E+00
(PID.TID 0000.0001) INI_CG2D: CG2D normalisation factor =  1.0000000000000001E-01
(PID.TID 0000.0001) 
(PID.TID 0000.0001) // =======================================================
(PID.TID 0000.0001) // Model configuration
(PID.TID 0000.0001) // =======================================================
(PID.TID 0000.0001) //
(PID.TID 0000.0001) // "Physical" paramters ( PARM01 in namelist )
(PID.TID 0000.0001) //
(PID.TID 0000.0001) buoyancyRelation = /* Type of relation to get Buoyancy */
(PID.TID 0000.0001)               'OCEANIC'
(PID.TID 0000.0001)     ;
(PID.TID 0000.0001) fluidIsAir   =  /* fluid major constituent is Air */
(PID.TID 0000.0001)                   F
(PID.TID 0000.0001)     ;
(PID.TID 0000.0001) fluidIsWater =  /* fluid major constituent is Water */
(PID.TID 0000.0001)                   T
(PID.TID 0000.0001)     ;
(PID.TID 0000.0001) usingPCoords =  /* use p (or p*) vertical coordinate */
(PID.TID 0000.0001)                   F
(PID.TID 0000.0001)     ;
(PID.TID 0000.0001) usingZCoords =  /* use z (or z*) vertical coordinate */
(PID.TID 0000.0001)                   T
(PID.TID 0000.0001)     ;
(PID.TID 0000.0001) tRef =   /* Reference temperature profile ( oC or K ) */
(PID.TID 0000.0001)                -1.620000000000000E+00       /* K =  1 */
(PID.TID 0000.0001)     ;
(PID.TID 0000.0001) sRef =   /* Reference salinity profile ( g/kg ) */
(PID.TID 0000.0001)                 3.000000000000000E+01       /* K =  1 */
(PID.TID 0000.0001)     ;
(PID.TID 0000.0001) useStrainTensionVisc= /* Use StrainTension Form of Viscous Operator */
(PID.TID 0000.0001)                   F
(PID.TID 0000.0001)     ;
(PID.TID 0000.0001) useVariableVisc = /* Use variable horizontal viscosity */
(PID.TID 0000.0001)                   F
(PID.TID 0000.0001)     ;
(PID.TID 0000.0001) useHarmonicVisc = /* Use harmonic horizontal viscosity */
(PID.TID 0000.0001)                   F
(PID.TID 0000.0001)     ;
(PID.TID 0000.0001) useBiharmonicVisc= /* Use biharmonic horiz.  viscosity */
(PID.TID 0000.0001)                   F
(PID.TID 0000.0001)     ;
(PID.TID 0000.0001) useSmag3D = /* Use isotropic 3-D Smagorinsky viscosity */
(PID.TID 0000.0001)                   F
(PID.TID 0000.0001)     ;
(PID.TID 0000.0001) viscAh  =   /* Lateral harmonic viscosity ( m^2/s ) */
(PID.TID 0000.0001)                 0.000000000000000E+00
(PID.TID 0000.0001)     ;
(PID.TID 0000.0001) viscA4  =   /* Lateral biharmonic viscosity ( m^4/s ) */
(PID.TID 0000.0001)                 0.000000000000000E+00
(PID.TID 0000.0001)     ;
(PID.TID 0000.0001) no_slip_sides =  /* Viscous BCs: No-slip sides */
(PID.TID 0000.0001)                   T
(PID.TID 0000.0001)     ;
(PID.TID 0000.0001) sideDragFactor = /* side-drag scaling factor (non-dim) */
(PID.TID 0000.0001)                 2.000000000000000E+00
(PID.TID 0000.0001)     ;
(PID.TID 0000.0001) viscArNr = /* vertical profile of vertical viscosity ( m^2/s )*/
(PID.TID 0000.0001)                 0.000000000000000E+00       /* K =  1 */
(PID.TID 0000.0001)     ;
(PID.TID 0000.0001) no_slip_bottom =  /* Viscous BCs: No-slip bottom */
(PID.TID 0000.0001)                   T
(PID.TID 0000.0001)     ;
(PID.TID 0000.0001) bottomVisc_pCell = /* Partial-cell in bottom Visc. BC */
(PID.TID 0000.0001)                   F
(PID.TID 0000.0001)     ;
(PID.TID 0000.0001) bottomDragLinear = /* linear bottom-drag coefficient ( m/s ) */
(PID.TID 0000.0001)                 0.000000000000000E+00
(PID.TID 0000.0001)     ;
(PID.TID 0000.0001) bottomDragQuadratic = /* quadratic bottom-drag coefficient (-) */
(PID.TID 0000.0001)                 0.000000000000000E+00
(PID.TID 0000.0001)     ;
(PID.TID 0000.0001) selectBotDragQuadr = /* select quadratic bottom drag options */
(PID.TID 0000.0001)                      -1
(PID.TID 0000.0001)     ;
(PID.TID 0000.0001) diffKhT =   /* Laplacian diffusion of heat laterally ( m^2/s ) */
(PID.TID 0000.0001)                 0.000000000000000E+00
(PID.TID 0000.0001)     ;
(PID.TID 0000.0001) diffK4T =   /* Biharmonic diffusion of heat laterally ( m^4/s ) */
(PID.TID 0000.0001)                 0.000000000000000E+00
(PID.TID 0000.0001)     ;
(PID.TID 0000.0001) diffKhS =   /* Laplacian diffusion of salt laterally ( m^2/s ) */
(PID.TID 0000.0001)                 0.000000000000000E+00
(PID.TID 0000.0001)     ;
(PID.TID 0000.0001) diffK4S =   /* Biharmonic diffusion of salt laterally ( m^4/s ) */
(PID.TID 0000.0001)                 0.000000000000000E+00
(PID.TID 0000.0001)     ;
(PID.TID 0000.0001) diffKrNrT = /* vertical profile of vertical diffusion of Temp ( m^2/s )*/
(PID.TID 0000.0001)                 0.000000000000000E+00       /* K =  1 */
(PID.TID 0000.0001)     ;
(PID.TID 0000.0001) diffKrNrS = /* vertical profile of vertical diffusion of Salt ( m^2/s )*/
(PID.TID 0000.0001)                 0.000000000000000E+00       /* K =  1 */
(PID.TID 0000.0001)     ;
(PID.TID 0000.0001) diffKrBL79surf = /* Surface diffusion for Bryan and Lewis 79 ( m^2/s ) */
(PID.TID 0000.0001)                 0.000000000000000E+00
(PID.TID 0000.0001)     ;
(PID.TID 0000.0001) diffKrBL79deep = /* Deep diffusion for Bryan and Lewis 1979 ( m^2/s ) */
(PID.TID 0000.0001)                 0.000000000000000E+00
(PID.TID 0000.0001)     ;
(PID.TID 0000.0001) diffKrBL79scl = /* Depth scale for Bryan and Lewis 1979 ( m ) */
(PID.TID 0000.0001)                 2.000000000000000E+02
(PID.TID 0000.0001)     ;
(PID.TID 0000.0001) diffKrBL79Ho = /* Turning depth for Bryan and Lewis 1979 ( m ) */
(PID.TID 0000.0001)                -2.000000000000000E+03
(PID.TID 0000.0001)     ;
(PID.TID 0000.0001) ivdc_kappa = /* Implicit Vertical Diffusivity for Convection ( m^2/s) */
(PID.TID 0000.0001)                 0.000000000000000E+00
(PID.TID 0000.0001)     ;
(PID.TID 0000.0001) hMixCriteria=  /* Criteria for mixed-layer diagnostic */
(PID.TID 0000.0001)                -8.000000000000000E-01
(PID.TID 0000.0001)     ;
(PID.TID 0000.0001) dRhoSmall =  /* Parameter for mixed-layer diagnostic */
(PID.TID 0000.0001)                 1.000000000000000E-06
(PID.TID 0000.0001)     ;
(PID.TID 0000.0001) hMixSmooth=  /* Smoothing parameter for mixed-layer diagnostic */
(PID.TID 0000.0001)                 0.000000000000000E+00
(PID.TID 0000.0001)     ;
(PID.TID 0000.0001) eosType =  /* Type of Equation of State */
(PID.TID 0000.0001)               'LINEAR'
(PID.TID 0000.0001)     ;
(PID.TID 0000.0001) tAlpha = /* Linear EOS thermal expansion coefficient ( 1/oC ) */
(PID.TID 0000.0001)                 2.000000000000000E-04
(PID.TID 0000.0001)     ;
(PID.TID 0000.0001) sBeta  = /* Linear EOS haline contraction coefficient ( 1/(g/kg) ) */
(PID.TID 0000.0001)                 7.400000000000000E-04
(PID.TID 0000.0001)     ;
(PID.TID 0000.0001) rhoNil    = /* Reference density for Linear EOS ( kg/m^3 ) */
(PID.TID 0000.0001)                 1.026000000000000E+03
(PID.TID 0000.0001)     ;
(PID.TID 0000.0001) selectP_inEOS_Zc = /* select pressure to use in EOS (0,1,2,3) */
(PID.TID 0000.0001)                       0
(PID.TID 0000.0001)     0= -g*rhoConst*z ; 1= pRef (from tRef,sRef); 2= Hyd P ; 3= Hyd+NH P
(PID.TID 0000.0001)     ;
(PID.TID 0000.0001) surf_pRef = /* Surface reference pressure ( Pa ) */
(PID.TID 0000.0001)                 1.013250000000000E+05
(PID.TID 0000.0001)     ;
(PID.TID 0000.0001) HeatCapacity_Cp =  /* Specific heat capacity ( J/kg/K ) */
(PID.TID 0000.0001)                 3.986000000000000E+03
(PID.TID 0000.0001)     ;
(PID.TID 0000.0001) celsius2K = /* 0 degree Celsius converted to Kelvin ( K ) */
(PID.TID 0000.0001)                 2.731500000000000E+02
(PID.TID 0000.0001)     ;
(PID.TID 0000.0001) rhoConst  = /* Reference density (Boussinesq)  ( kg/m^3 ) */
(PID.TID 0000.0001)                 1.026000000000000E+03
(PID.TID 0000.0001)     ;
(PID.TID 0000.0001) rhoFacC = /* normalized Reference density @ cell-Center (-) */
(PID.TID 0000.0001)                 1.000000000000000E+00       /* K =  1 */
(PID.TID 0000.0001)     ;
(PID.TID 0000.0001) rhoFacF = /* normalized Reference density @ W-Interface (-) */
(PID.TID 0000.0001)     2 @  1.000000000000000E+00              /* K =  1:  2 */
(PID.TID 0000.0001)     ;
(PID.TID 0000.0001) rhoConstFresh = /* Fresh-water reference density ( kg/m^3 ) */
(PID.TID 0000.0001)                 1.000000000000000E+03
(PID.TID 0000.0001)     ;
(PID.TID 0000.0001) gravity =   /* Gravitational acceleration ( m/s^2 ) */
(PID.TID 0000.0001)                 9.810000000000000E+00
(PID.TID 0000.0001)     ;
(PID.TID 0000.0001) gBaro =   /* Barotropic gravity ( m/s^2 ) */
(PID.TID 0000.0001)                 9.810000000000000E+00
(PID.TID 0000.0001)     ;
(PID.TID 0000.0001) gravFacC = /* gravity factor (vs surf.) @ cell-Center (-) */
(PID.TID 0000.0001)                 1.000000000000000E+00       /* K =  1 */
(PID.TID 0000.0001)     ;
(PID.TID 0000.0001) gravFacF = /* gravity factor (vs surf.) @ W-Interface (-) */
(PID.TID 0000.0001)     2 @  1.000000000000000E+00              /* K =  1:  2 */
(PID.TID 0000.0001)     ;
(PID.TID 0000.0001) rotationPeriod =   /* Rotation Period ( s ) */
(PID.TID 0000.0001)                 8.616400000000000E+04
(PID.TID 0000.0001)     ;
(PID.TID 0000.0001) omega =   /* Angular velocity ( rad/s ) */
(PID.TID 0000.0001)                 7.292123516990375E-05
(PID.TID 0000.0001)     ;
(PID.TID 0000.0001) f0 =   /* Reference coriolis parameter ( 1/s ) */
(PID.TID 0000.0001)                 1.460000000000000E-04
(PID.TID 0000.0001)     ;
(PID.TID 0000.0001) beta =   /* Beta ( 1/(m.s) ) */
(PID.TID 0000.0001)                 9.999999999999999E-12
(PID.TID 0000.0001)     ;
(PID.TID 0000.0001) fPrime =   /* Second coriolis parameter ( 1/s ) */
(PID.TID 0000.0001)                 0.000000000000000E+00
(PID.TID 0000.0001)     ;
(PID.TID 0000.0001) rigidLid =   /* Rigid lid on/off flag */
(PID.TID 0000.0001)                   F
(PID.TID 0000.0001)     ;
(PID.TID 0000.0001) implicitFreeSurface =   /* Implicit free surface on/off flag */
(PID.TID 0000.0001)                   T
(PID.TID 0000.0001)     ;
(PID.TID 0000.0001) freeSurfFac =   /* Implicit free surface factor */
(PID.TID 0000.0001)                 1.000000000000000E+00
(PID.TID 0000.0001)     ;
(PID.TID 0000.0001) implicSurfPress =  /* Surface Pressure implicit factor (0-1) */
(PID.TID 0000.0001)                 1.000000000000000E+00
(PID.TID 0000.0001)     ;
(PID.TID 0000.0001) implicDiv2DFlow =  /* Barot. Flow Div. implicit factor (0-1) */
(PID.TID 0000.0001)                 1.000000000000000E+00
(PID.TID 0000.0001)     ;
(PID.TID 0000.0001) uniformLin_PhiSurf = /* use uniform Bo_surf on/off flag */
(PID.TID 0000.0001)                   T
(PID.TID 0000.0001)     ;
(PID.TID 0000.0001) uniformFreeSurfLev = /* free-surface level-index is uniform */
(PID.TID 0000.0001)                   T
(PID.TID 0000.0001)     ;
(PID.TID 0000.0001) sIceLoadFac =  /* scale factor for sIceLoad (0-1) */
(PID.TID 0000.0001)                 1.000000000000000E+00
(PID.TID 0000.0001)     ;
(PID.TID 0000.0001) hFacMin =   /* minimum partial cell factor (hFac) */
(PID.TID 0000.0001)                 1.000000000000000E+00
(PID.TID 0000.0001)     ;
(PID.TID 0000.0001) hFacMinDr = /* minimum partial cell thickness ( m) */
(PID.TID 0000.0001)                 0.000000000000000E+00
(PID.TID 0000.0001)     ;
(PID.TID 0000.0001) exactConserv =  /* Exact Volume Conservation on/off flag */
(PID.TID 0000.0001)                   F
(PID.TID 0000.0001)     ;
(PID.TID 0000.0001) linFSConserveTr = /* Tracer correction for Lin Free Surface on/off flag */
(PID.TID 0000.0001)                   F
(PID.TID 0000.0001)     ;
(PID.TID 0000.0001) nonlinFreeSurf = /* Non-linear Free Surf. options (-1,0,1,2,3)*/
(PID.TID 0000.0001)                       0
(PID.TID 0000.0001)      -1,0= Off ; 1,2,3= On, 2=+rescale gU,gV, 3=+update cg2d solv.
(PID.TID 0000.0001)     ;
(PID.TID 0000.0001) hFacInf =   /* lower threshold for hFac (nonlinFreeSurf only)*/
(PID.TID 0000.0001)                 2.000000000000000E-01
(PID.TID 0000.0001)     ;
(PID.TID 0000.0001) hFacSup =   /* upper threshold for hFac (nonlinFreeSurf only)*/
(PID.TID 0000.0001)                 2.000000000000000E+00
(PID.TID 0000.0001)     ;
(PID.TID 0000.0001) select_rStar = /* r* Vertical coord. options (=0 r coord.; >0 uses r*)*/
(PID.TID 0000.0001)                       0
(PID.TID 0000.0001)     ;
(PID.TID 0000.0001) useRealFreshWaterFlux = /* Real Fresh Water Flux on/off flag*/
(PID.TID 0000.0001)                   F
(PID.TID 0000.0001)     ;
(PID.TID 0000.0001) temp_EvPrRn = /* Temp. of Evap/Prec/R (UNSET=use local T)(oC)*/
(PID.TID 0000.0001)                 1.234567000000000E+05
(PID.TID 0000.0001)     ;
(PID.TID 0000.0001) salt_EvPrRn = /* Salin. of Evap/Prec/R (UNSET=use local S)(g/kg)*/
(PID.TID 0000.0001)                 0.000000000000000E+00
(PID.TID 0000.0001)     ;
(PID.TID 0000.0001) selectAddFluid = /* option for mass source/sink of fluid (=0: off) */
(PID.TID 0000.0001)                       0
(PID.TID 0000.0001)     ;
(PID.TID 0000.0001) temp_addMass = /* Temp. of addMass array (UNSET=use local T)(oC)*/
(PID.TID 0000.0001)                 1.234567000000000E+05
(PID.TID 0000.0001)     ;
(PID.TID 0000.0001) salt_addMass = /* Salin. of addMass array (UNSET=use local S)(g/kg)*/
(PID.TID 0000.0001)                 0.000000000000000E+00
(PID.TID 0000.0001)     ;
(PID.TID 0000.0001) convertFW2Salt = /* convert F.W. Flux to Salt Flux (-1=use local S)(g/kg)*/
(PID.TID 0000.0001)                 3.500000000000000E+01
(PID.TID 0000.0001)     ;
(PID.TID 0000.0001) use3Dsolver = /* use 3-D pressure solver on/off flag */
(PID.TID 0000.0001)                   F
(PID.TID 0000.0001)     ;
(PID.TID 0000.0001) nonHydrostatic =  /* Non-Hydrostatic on/off flag */
(PID.TID 0000.0001)                   F
(PID.TID 0000.0001)     ;
(PID.TID 0000.0001) nh_Am2 = /* Non-Hydrostatic terms scaling factor */
(PID.TID 0000.0001)                 1.000000000000000E+00
(PID.TID 0000.0001)     ;
(PID.TID 0000.0001) implicitNHPress = /* Non-Hyd Pressure implicit factor (0-1)*/
(PID.TID 0000.0001)                 1.000000000000000E+00
(PID.TID 0000.0001)     ;
(PID.TID 0000.0001) selectNHfreeSurf = /* Non-Hyd (free-)Surface option */
(PID.TID 0000.0001)                       0
(PID.TID 0000.0001)     ;
(PID.TID 0000.0001) quasiHydrostatic = /* Quasi-Hydrostatic on/off flag */
(PID.TID 0000.0001)                   F
(PID.TID 0000.0001)     ;
(PID.TID 0000.0001) calc_wVelocity = /* vertical velocity calculation on/off flag */
(PID.TID 0000.0001)                   F
(PID.TID 0000.0001)     ;
(PID.TID 0000.0001) momStepping =  /* Momentum equation on/off flag */
(PID.TID 0000.0001)                   F
(PID.TID 0000.0001)     ;
(PID.TID 0000.0001) vectorInvariantMomentum= /* Vector-Invariant Momentum on/off */
(PID.TID 0000.0001)                   F
(PID.TID 0000.0001)     ;
(PID.TID 0000.0001) momAdvection =  /* Momentum advection on/off flag */
(PID.TID 0000.0001)                   F
(PID.TID 0000.0001)     ;
(PID.TID 0000.0001) momViscosity =  /* Momentum viscosity on/off flag */
(PID.TID 0000.0001)                   F
(PID.TID 0000.0001)     ;
(PID.TID 0000.0001) momImplVertAdv= /* Momentum implicit vert. advection on/off*/
(PID.TID 0000.0001)                   F
(PID.TID 0000.0001)     ;
(PID.TID 0000.0001) implicitViscosity = /* Implicit viscosity on/off flag */
(PID.TID 0000.0001)                   F
(PID.TID 0000.0001)     ;
(PID.TID 0000.0001) selectImplicitDrag= /* Implicit bot Drag options (0,1,2)*/
(PID.TID 0000.0001)                       0
(PID.TID 0000.0001)     0= Expl. ; 1= Impl. on provis. Vel ; 2= Fully Impl (with surf.P)
(PID.TID 0000.0001)     ;
(PID.TID 0000.0001) metricTerms =  /* metric-Terms on/off flag */
(PID.TID 0000.0001)                   F
(PID.TID 0000.0001)     ;
(PID.TID 0000.0001) useNHMTerms = /* Non-Hydrostatic Metric-Terms on/off */
(PID.TID 0000.0001)                   F
(PID.TID 0000.0001)     ;
(PID.TID 0000.0001) selectCoriMap = /* Coriolis Map options (0,1,2,3)*/
(PID.TID 0000.0001)                       1
(PID.TID 0000.0001)     0= f-Plane ; 1= Beta-Plane ; 2= Spherical ; 3= read from file
(PID.TID 0000.0001)     ;
(PID.TID 0000.0001) use3dCoriolis = /* 3-D Coriolis on/off flag */
(PID.TID 0000.0001)                   F
(PID.TID 0000.0001)     ;
(PID.TID 0000.0001) useCoriolis =  /* Coriolis on/off flag */
(PID.TID 0000.0001)                   F
(PID.TID 0000.0001)     ;
(PID.TID 0000.0001) useCDscheme =  /* CD scheme on/off flag */
(PID.TID 0000.0001)                   F
(PID.TID 0000.0001)     ;
(PID.TID 0000.0001) selectCoriScheme= /* Scheme selector for Coriolis-Term */
(PID.TID 0000.0001)                       0
(PID.TID 0000.0001)    = 0 : original discretization (simple averaging, no hFac)
(PID.TID 0000.0001)    = 1 : Wet-point averaging (Jamar & Ozer 1986)
(PID.TID 0000.0001)    = 2 : energy conserving scheme (no hFac weight)
(PID.TID 0000.0001)    = 3 : energy conserving scheme using Wet-point averaging
(PID.TID 0000.0001)     ;
(PID.TID 0000.0001) momForcing =  /* Momentum forcing on/off flag */
(PID.TID 0000.0001)                   F
(PID.TID 0000.0001)     ;
(PID.TID 0000.0001) momPressureForcing =  /* Momentum pressure term on/off flag */
(PID.TID 0000.0001)                   F
(PID.TID 0000.0001)     ;
(PID.TID 0000.0001) implicitIntGravWave= /* Implicit Internal Gravity Wave flag */
(PID.TID 0000.0001)                   F
(PID.TID 0000.0001)     ;
(PID.TID 0000.0001) staggerTimeStep =    /* Stagger time stepping on/off flag */
(PID.TID 0000.0001)                   F
(PID.TID 0000.0001)     ;
(PID.TID 0000.0001) doResetHFactors = /* reset thickness factors @ each time-step */
(PID.TID 0000.0001)                   F
(PID.TID 0000.0001)     ;
(PID.TID 0000.0001) multiDimAdvection =  /* enable/disable Multi-Dim Advection */
(PID.TID 0000.0001)                   T
(PID.TID 0000.0001)     ;
(PID.TID 0000.0001) useMultiDimAdvec =   /* Multi-Dim Advection is/is-not used */
(PID.TID 0000.0001)                   F
(PID.TID 0000.0001)     ;
(PID.TID 0000.0001) implicitDiffusion = /* Implicit Diffusion on/off flag */
(PID.TID 0000.0001)                   F
(PID.TID 0000.0001)     ;
(PID.TID 0000.0001) tempStepping =  /* Temperature equation on/off flag */
(PID.TID 0000.0001)                   F
(PID.TID 0000.0001)     ;
(PID.TID 0000.0001) tempAdvection = /* Temperature advection on/off flag */
(PID.TID 0000.0001)                   F
(PID.TID 0000.0001)     ;
(PID.TID 0000.0001) tempImplVertAdv = /* Temp. implicit vert. advection on/off */
(PID.TID 0000.0001)                   F
(PID.TID 0000.0001)     ;
(PID.TID 0000.0001) tempForcing  =  /* Temperature forcing on/off flag */
(PID.TID 0000.0001)                   F
(PID.TID 0000.0001)     ;
(PID.TID 0000.0001) doThetaClimRelax = /* apply SST relaxation on/off flag */
(PID.TID 0000.0001)                   F
(PID.TID 0000.0001)     ;
(PID.TID 0000.0001) tempIsActiveTr = /* Temp. is a dynamically Active Tracer */
(PID.TID 0000.0001)                   F
(PID.TID 0000.0001)     ;
(PID.TID 0000.0001) saltStepping =  /* Salinity equation on/off flag */
(PID.TID 0000.0001)                   F
(PID.TID 0000.0001)     ;
(PID.TID 0000.0001) saltAdvection = /* Salinity advection on/off flag */
(PID.TID 0000.0001)                   F
(PID.TID 0000.0001)     ;
(PID.TID 0000.0001) saltImplVertAdv = /* Sali. implicit vert. advection on/off */
(PID.TID 0000.0001)                   F
(PID.TID 0000.0001)     ;
(PID.TID 0000.0001) saltForcing  =  /* Salinity forcing on/off flag */
(PID.TID 0000.0001)                   F
(PID.TID 0000.0001)     ;
(PID.TID 0000.0001) doSaltClimRelax = /* apply SSS relaxation on/off flag */
(PID.TID 0000.0001)                   F
(PID.TID 0000.0001)     ;
(PID.TID 0000.0001) saltIsActiveTr = /* Salt  is a dynamically Active Tracer */
(PID.TID 0000.0001)                   F
(PID.TID 0000.0001)     ;
(PID.TID 0000.0001)  readBinaryPrec = /* Precision used for reading binary files */
(PID.TID 0000.0001)                      64
(PID.TID 0000.0001)     ;
(PID.TID 0000.0001) writeBinaryPrec = /* Precision used for writing binary files */
(PID.TID 0000.0001)                      32
(PID.TID 0000.0001)     ;
(PID.TID 0000.0001)  rwSuffixType =   /* select format of mds file suffix */
(PID.TID 0000.0001)                       0
(PID.TID 0000.0001)    = 0 : myIter (I10.10) ;   = 1 : 100*myTime (100th sec) ;
(PID.TID 0000.0001)    = 2 : myTime (seconds);   = 3 : myTime/360 (10th of hr);
(PID.TID 0000.0001)    = 4 : myTime/3600 (hours)
(PID.TID 0000.0001)     ;
(PID.TID 0000.0001)  globalFiles = /* write "global" (=not per tile) files */
(PID.TID 0000.0001)                   F
(PID.TID 0000.0001)     ;
(PID.TID 0000.0001)  useSingleCpuIO = /* only master MPI process does I/O */
(PID.TID 0000.0001)                   T
(PID.TID 0000.0001)     ;
(PID.TID 0000.0001)  useSingleCpuInput = /* only master process reads input */
(PID.TID 0000.0001)                   T
(PID.TID 0000.0001)     ;
(PID.TID 0000.0001) /* debLev[*]  : level of debug & auxiliary message printing */
(PID.TID 0000.0001) debLevZero =  0 ; /* level of disabled aux. msg printing */
(PID.TID 0000.0001)    debLevA =  1 ; /* level of minimum  aux. msg printing */
(PID.TID 0000.0001)    debLevB =  2 ; /* level of low aux. print (report read-file opening)*/
(PID.TID 0000.0001)    debLevC =  3 ; /* level of moderate debug prt (most pkgs debug msg) */
(PID.TID 0000.0001)    debLevD =  4 ; /* level of enhanced debug prt (add DEBUG_STATS prt) */
(PID.TID 0000.0001)    debLevE =  5 ; /* level of extensive debug printing */
(PID.TID 0000.0001) debugLevel =  /* select debug printing level */
(PID.TID 0000.0001)                       2
(PID.TID 0000.0001)     ;
(PID.TID 0000.0001)  plotLevel =  /* select PLOT_FIELD printing level */
(PID.TID 0000.0001)                       2
(PID.TID 0000.0001)     ;
(PID.TID 0000.0001) //
(PID.TID 0000.0001) // Elliptic solver(s) paramters ( PARM02 in namelist )
(PID.TID 0000.0001) //
(PID.TID 0000.0001) cg2dMaxIters =   /* Upper limit on 2d con. grad iterations  */
(PID.TID 0000.0001)                     500
(PID.TID 0000.0001)     ;
(PID.TID 0000.0001) cg2dMinItersNSA =   /* Minimum number of iterations of 2d con. grad solver  */
(PID.TID 0000.0001)                       0
(PID.TID 0000.0001)     ;
(PID.TID 0000.0001) cg2dUseMinResSol= /* use cg2d last-iter(=0) / min-resid.(=1) solution */
(PID.TID 0000.0001)                       0
(PID.TID 0000.0001)     ;
(PID.TID 0000.0001) cg2dTargetResidual =   /* 2d con. grad target residual  */
(PID.TID 0000.0001)                 1.000000000000000E-12
(PID.TID 0000.0001)     ;
(PID.TID 0000.0001) cg2dTargetResWunit =   /* CG2d target residual [W units] */
(PID.TID 0000.0001)                -1.000000000000000E+00
(PID.TID 0000.0001)     ;
(PID.TID 0000.0001) cg2dPreCondFreq =   /* Freq. for updating cg2d preconditioner */
(PID.TID 0000.0001)                       1
(PID.TID 0000.0001)     ;
(PID.TID 0000.0001) useSRCGSolver =  /* use single reduction CG solver(s) */
(PID.TID 0000.0001)                   F
(PID.TID 0000.0001)     ;
(PID.TID 0000.0001) useNSACGSolver =  /* use not-self-adjoint CG solver */
(PID.TID 0000.0001)                   F
(PID.TID 0000.0001)     ;
(PID.TID 0000.0001) printResidualFreq = /* Freq. for printing CG residual */
(PID.TID 0000.0001)                       0
(PID.TID 0000.0001)     ;
(PID.TID 0000.0001) //
(PID.TID 0000.0001) // Time stepping paramters ( PARM03 in namelist )
(PID.TID 0000.0001) //
(PID.TID 0000.0001) deltaTMom =   /* Momentum equation timestep ( s ) */
(PID.TID 0000.0001)                 2.500000000000000E+00
(PID.TID 0000.0001)     ;
(PID.TID 0000.0001) deltaTFreeSurf = /* FreeSurface equation timestep ( s ) */
(PID.TID 0000.0001)                 2.500000000000000E+00
(PID.TID 0000.0001)     ;
(PID.TID 0000.0001) dTtracerLev =  /* Tracer equation timestep ( s ) */
(PID.TID 0000.0001)                 2.500000000000000E+00       /* K =  1 */
(PID.TID 0000.0001)     ;
(PID.TID 0000.0001) deltaTClock  =   /* Model clock timestep ( s ) */
(PID.TID 0000.0001)                 2.500000000000000E+00
(PID.TID 0000.0001)     ;
(PID.TID 0000.0001) cAdjFreq =   /* Convective adjustment interval ( s ) */
(PID.TID 0000.0001)                 0.000000000000000E+00
(PID.TID 0000.0001)     ;
(PID.TID 0000.0001) momForcingOutAB = /* =1: take Momentum Forcing out of Adams-Bash. stepping */
(PID.TID 0000.0001)                       1
(PID.TID 0000.0001)     ;
(PID.TID 0000.0001) tracForcingOutAB = /* =1: take T,S,pTr Forcing out of Adams-Bash. stepping */
(PID.TID 0000.0001)                       1
(PID.TID 0000.0001)     ;
(PID.TID 0000.0001) momDissip_In_AB = /* put Dissipation Tendency in Adams-Bash. stepping */
(PID.TID 0000.0001)                   T
(PID.TID 0000.0001)     ;
(PID.TID 0000.0001) doAB_onGtGs = /* apply AB on Tendencies (rather than on T,S)*/
(PID.TID 0000.0001)                   T
(PID.TID 0000.0001)     ;
(PID.TID 0000.0001) abEps =   /* Adams-Bashforth-2 stabilizing weight */
(PID.TID 0000.0001)                 1.000000000000000E-01
(PID.TID 0000.0001)     ;
(PID.TID 0000.0001) applyExchUV_early = /* Apply EXCH to U,V earlier in time-step */
(PID.TID 0000.0001)                   F
(PID.TID 0000.0001)     ;
(PID.TID 0000.0001) pickupStrictlyMatch= /* stop if pickup do not strictly match */
(PID.TID 0000.0001)                   T
(PID.TID 0000.0001)     ;
(PID.TID 0000.0001) nIter0   =   /* Run starting timestep number */
(PID.TID 0000.0001)                       0
(PID.TID 0000.0001)     ;
(PID.TID 0000.0001) nTimeSteps = /* Number of timesteps */
(PID.TID 0000.0001)                      20
(PID.TID 0000.0001)     ;
(PID.TID 0000.0001) nEndIter =   /* Run ending timestep number */
(PID.TID 0000.0001)                      20
(PID.TID 0000.0001)     ;
(PID.TID 0000.0001) baseTime =   /* Model base time ( s ) */
(PID.TID 0000.0001)                 0.000000000000000E+00
(PID.TID 0000.0001)     ;
(PID.TID 0000.0001) startTime =  /* Run start time ( s ) */
(PID.TID 0000.0001)                 0.000000000000000E+00
(PID.TID 0000.0001)     ;
(PID.TID 0000.0001) endTime  =   /* Integration ending time ( s ) */
(PID.TID 0000.0001)                 5.000000000000000E+01
(PID.TID 0000.0001)     ;
(PID.TID 0000.0001) pChkPtFreq = /* Permanent restart/pickup file interval ( s ) */
(PID.TID 0000.0001)                 0.000000000000000E+00
(PID.TID 0000.0001)     ;
(PID.TID 0000.0001) chkPtFreq  = /* Rolling restart/pickup file interval ( s ) */
(PID.TID 0000.0001)                 0.000000000000000E+00
(PID.TID 0000.0001)     ;
(PID.TID 0000.0001) pickup_write_mdsio =   /* Model IO flag. */
(PID.TID 0000.0001)                   T
(PID.TID 0000.0001)     ;
(PID.TID 0000.0001) pickup_read_mdsio =   /* Model IO flag. */
(PID.TID 0000.0001)                   T
(PID.TID 0000.0001)     ;
(PID.TID 0000.0001) pickup_write_mnc =   /* Model IO flag. */
(PID.TID 0000.0001)                   F
(PID.TID 0000.0001)     ;
(PID.TID 0000.0001) pickup_read_mnc =   /* Model IO flag. */
(PID.TID 0000.0001)                   F
(PID.TID 0000.0001)     ;
(PID.TID 0000.0001) writePickupAtEnd =   /* Model IO flag. */
(PID.TID 0000.0001)                   T
(PID.TID 0000.0001)     ;
(PID.TID 0000.0001) dumpFreq =   /* Model state write out interval ( s ). */
(PID.TID 0000.0001)                 0.000000000000000E+00
(PID.TID 0000.0001)     ;
(PID.TID 0000.0001) dumpInitAndLast= /* write out Initial & Last iter. model state */
(PID.TID 0000.0001)                   T
(PID.TID 0000.0001)     ;
(PID.TID 0000.0001) snapshot_mdsio =   /* Model IO flag. */
(PID.TID 0000.0001)                   T
(PID.TID 0000.0001)     ;
(PID.TID 0000.0001) snapshot_mnc =   /* Model IO flag. */
(PID.TID 0000.0001)                   F
(PID.TID 0000.0001)     ;
(PID.TID 0000.0001) monitorFreq =   /* Monitor output interval ( s ). */
(PID.TID 0000.0001)                 2.500000000000000E+00
(PID.TID 0000.0001)     ;
(PID.TID 0000.0001) monitorSelect = /* select group of variables to monitor */
(PID.TID 0000.0001)                       2
(PID.TID 0000.0001)     ;
(PID.TID 0000.0001) monitor_stdio =   /* Model IO flag. */
(PID.TID 0000.0001)                   T
(PID.TID 0000.0001)     ;
(PID.TID 0000.0001) monitor_mnc =   /* Model IO flag. */
(PID.TID 0000.0001)                   F
(PID.TID 0000.0001)     ;
(PID.TID 0000.0001) externForcingPeriod =   /* forcing period (s) */
(PID.TID 0000.0001)                 0.000000000000000E+00
(PID.TID 0000.0001)     ;
(PID.TID 0000.0001) externForcingCycle =   /* period of the cyle (s). */
(PID.TID 0000.0001)                 0.000000000000000E+00
(PID.TID 0000.0001)     ;
(PID.TID 0000.0001) tauThetaClimRelax =   /* relaxation time scale (s) */
(PID.TID 0000.0001)                 0.000000000000000E+00
(PID.TID 0000.0001)     ;
(PID.TID 0000.0001) tauSaltClimRelax =   /* relaxation time scale (s) */
(PID.TID 0000.0001)                 0.000000000000000E+00
(PID.TID 0000.0001)     ;
(PID.TID 0000.0001) latBandClimRelax =   /* max. Lat. where relaxation */
(PID.TID 0000.0001)                 1.560000000000000E+06
(PID.TID 0000.0001)     ;
(PID.TID 0000.0001) //
(PID.TID 0000.0001) // Gridding paramters ( PARM04 in namelist )
(PID.TID 0000.0001) //
(PID.TID 0000.0001) usingCartesianGrid = /* Cartesian coordinates flag ( True/False ) */
(PID.TID 0000.0001)                   T
(PID.TID 0000.0001)     ;
(PID.TID 0000.0001) usingCylindricalGrid = /* Cylindrical coordinates flag ( True/False ) */
(PID.TID 0000.0001)                   F
(PID.TID 0000.0001)     ;
(PID.TID 0000.0001) usingSphericalPolarGrid = /* Spherical coordinates flag ( True/False ) */
(PID.TID 0000.0001)                   F
(PID.TID 0000.0001)     ;
(PID.TID 0000.0001) usingCurvilinearGrid = /* Curvilinear coordinates flag ( True/False ) */
(PID.TID 0000.0001)                   F
(PID.TID 0000.0001)     ;
(PID.TID 0000.0001) useMin4hFacEdges = /* set hFacW,S as minimum of adjacent hFacC factor */
(PID.TID 0000.0001)                   F
(PID.TID 0000.0001)     ;
(PID.TID 0000.0001) interViscAr_pCell = /* account for partial-cell in interior vert. viscosity */
(PID.TID 0000.0001)                   F
(PID.TID 0000.0001)     ;
(PID.TID 0000.0001) interDiffKr_pCell = /* account for partial-cell in interior vert. diffusion */
(PID.TID 0000.0001)                   F
(PID.TID 0000.0001)     ;
(PID.TID 0000.0001) pCellMix_select = /* option to enhance mixing near surface & bottom */
(PID.TID 0000.0001)                       0
(PID.TID 0000.0001)     ;
(PID.TID 0000.0001) selectSigmaCoord = /* Hybrid-Sigma Vert. Coordinate option */
(PID.TID 0000.0001)                       0
(PID.TID 0000.0001)     ;
(PID.TID 0000.0001) rSigmaBnd = /* r/sigma transition ( units of r ==  m ) */
(PID.TID 0000.0001)                 1.234567000000000E+05
(PID.TID 0000.0001)     ;
(PID.TID 0000.0001) rkSign =   /* index orientation relative to vertical coordinate */
(PID.TID 0000.0001)                -1.000000000000000E+00
(PID.TID 0000.0001)     ;
(PID.TID 0000.0001) gravitySign = /* gravity orientation relative to vertical coordinate */
(PID.TID 0000.0001)                -1.000000000000000E+00
(PID.TID 0000.0001)     ;
(PID.TID 0000.0001) seaLev_Z =  /* reference height of sea-level [m] */
(PID.TID 0000.0001)                 0.000000000000000E+00
(PID.TID 0000.0001)     ;
(PID.TID 0000.0001) top_Pres =  /* reference pressure at the top [Pa] */
(PID.TID 0000.0001)                 0.000000000000000E+00
(PID.TID 0000.0001)     ;
(PID.TID 0000.0001) mass2rUnit = /* convert mass per unit area [kg/m2] to r-units [m] */
(PID.TID 0000.0001)                 9.746588693957114E-04
(PID.TID 0000.0001)     ;
(PID.TID 0000.0001) rUnit2mass = /* convert r-units [m] to mass per unit area [kg/m2] */
(PID.TID 0000.0001)                 1.026000000000000E+03
(PID.TID 0000.0001)     ;
(PID.TID 0000.0001) drC =   /* C spacing ( units of r ) */
(PID.TID 0000.0001)     2 @  5.000000000000000E+00              /* K =  1:  2 */
(PID.TID 0000.0001)     ;
(PID.TID 0000.0001) drF =   /* W spacing ( units of r ) */
(PID.TID 0000.0001)                 1.000000000000000E+01       /* K =  1 */
(PID.TID 0000.0001)     ;
(PID.TID 0000.0001) delX = /* U spacing ( m - cartesian, degrees - spherical ) */
(PID.TID 0000.0001)    65 @  8.000000000000000E+03              /* I =  1: 65 */
(PID.TID 0000.0001)     ;
(PID.TID 0000.0001) delY = /* V spacing ( m - cartesian, degrees - spherical ) */
(PID.TID 0000.0001)    65 @  8.000000000000000E+03              /* J =  1: 65 */
(PID.TID 0000.0001)     ;
(PID.TID 0000.0001) xgOrigin = /* X-axis origin of West  edge (cartesian: m, lat-lon: deg) */
(PID.TID 0000.0001)                 0.000000000000000E+00
(PID.TID 0000.0001)     ;
(PID.TID 0000.0001) ygOrigin = /* Y-axis origin of South edge (cartesian: m, lat-lon: deg) */
(PID.TID 0000.0001)                 0.000000000000000E+00
(PID.TID 0000.0001)     ;
(PID.TID 0000.0001) rSphere =  /* Radius ( ignored - cartesian, m - spherical ) */
(PID.TID 0000.0001)                 6.370000000000000E+06
(PID.TID 0000.0001)     ;
(PID.TID 0000.0001) deepAtmosphere = /* Deep/Shallow Atmosphere flag (True/False) */
(PID.TID 0000.0001)                   F
(PID.TID 0000.0001)     ;
(PID.TID 0000.0001) xC =  /* xC(:,1,:,1) : P-point X coord ( deg. or m if cartesian) */
(PID.TID 0000.0001)                 4.000000000000000E+03,      /* I =  1 */
(PID.TID 0000.0001)                 1.200000000000000E+04,      /* I =  2 */
(PID.TID 0000.0001)                 2.000000000000000E+04,      /* I =  3 */
(PID.TID 0000.0001)                 2.800000000000000E+04,      /* I =  4 */
(PID.TID 0000.0001)                 3.600000000000000E+04,      /* I =  5 */
(PID.TID 0000.0001)                 4.400000000000000E+04,      /* I =  6 */
(PID.TID 0000.0001)                 5.200000000000000E+04,      /* I =  7 */
(PID.TID 0000.0001)                 6.000000000000000E+04,      /* I =  8 */
(PID.TID 0000.0001)                 6.800000000000000E+04,      /* I =  9 */
(PID.TID 0000.0001)                 7.600000000000000E+04,      /* I = 10 */
(PID.TID 0000.0001)                 8.400000000000000E+04,      /* I = 11 */
(PID.TID 0000.0001)                 9.200000000000000E+04,      /* I = 12 */
(PID.TID 0000.0001)                 1.000000000000000E+05,      /* I = 13 */
(PID.TID 0000.0001)                 1.080000000000000E+05,      /* I = 14 */
(PID.TID 0000.0001)                 1.160000000000000E+05,      /* I = 15 */
(PID.TID 0000.0001)                 1.240000000000000E+05,      /* I = 16 */
(PID.TID 0000.0001)                 1.320000000000000E+05,      /* I = 17 */
(PID.TID 0000.0001)                 1.400000000000000E+05,      /* I = 18 */
(PID.TID 0000.0001)                 1.480000000000000E+05,      /* I = 19 */
(PID.TID 0000.0001)                 1.560000000000000E+05,      /* I = 20 */
(PID.TID 0000.0001)                 1.640000000000000E+05,      /* I = 21 */
(PID.TID 0000.0001)                 1.720000000000000E+05,      /* I = 22 */
(PID.TID 0000.0001)                 1.800000000000000E+05,      /* I = 23 */
(PID.TID 0000.0001)                 1.880000000000000E+05,      /* I = 24 */
(PID.TID 0000.0001)                 1.960000000000000E+05,      /* I = 25 */
(PID.TID 0000.0001)                 2.040000000000000E+05,      /* I = 26 */
(PID.TID 0000.0001)                 2.120000000000000E+05,      /* I = 27 */
(PID.TID 0000.0001)                 2.200000000000000E+05,      /* I = 28 */
(PID.TID 0000.0001)                 2.280000000000000E+05,      /* I = 29 */
(PID.TID 0000.0001)                 2.360000000000000E+05,      /* I = 30 */
(PID.TID 0000.0001)                 2.440000000000000E+05,      /* I = 31 */
(PID.TID 0000.0001)                 2.520000000000000E+05,      /* I = 32 */
(PID.TID 0000.0001)                 2.600000000000000E+05,      /* I = 33 */
(PID.TID 0000.0001)                 2.680000000000000E+05,      /* I = 34 */
(PID.TID 0000.0001)                 2.760000000000000E+05,      /* I = 35 */
(PID.TID 0000.0001)                 2.840000000000000E+05,      /* I = 36 */
(PID.TID 0000.0001)                 2.920000000000000E+05,      /* I = 37 */
(PID.TID 0000.0001)                 3.000000000000000E+05,      /* I = 38 */
(PID.TID 0000.0001)                 3.080000000000000E+05,      /* I = 39 */
(PID.TID 0000.0001)                 3.160000000000000E+05,      /* I = 40 */
(PID.TID 0000.0001)                 3.240000000000000E+05,      /* I = 41 */
(PID.TID 0000.0001)                 3.320000000000000E+05,      /* I = 42 */
(PID.TID 0000.0001)                 3.400000000000000E+05,      /* I = 43 */
(PID.TID 0000.0001)                 3.480000000000000E+05,      /* I = 44 */
(PID.TID 0000.0001)                 3.560000000000000E+05,      /* I = 45 */
(PID.TID 0000.0001)                 3.640000000000000E+05,      /* I = 46 */
(PID.TID 0000.0001)                 3.720000000000000E+05,      /* I = 47 */
(PID.TID 0000.0001)                 3.800000000000000E+05,      /* I = 48 */
(PID.TID 0000.0001)                 3.880000000000000E+05,      /* I = 49 */
(PID.TID 0000.0001)                 3.960000000000000E+05,      /* I = 50 */
(PID.TID 0000.0001)                 4.040000000000000E+05,      /* I = 51 */
(PID.TID 0000.0001)                 4.120000000000000E+05,      /* I = 52 */
(PID.TID 0000.0001)                 4.200000000000000E+05,      /* I = 53 */
(PID.TID 0000.0001)                 4.280000000000000E+05,      /* I = 54 */
(PID.TID 0000.0001)                 4.360000000000000E+05,      /* I = 55 */
(PID.TID 0000.0001)                 4.440000000000000E+05,      /* I = 56 */
(PID.TID 0000.0001)                 4.520000000000000E+05,      /* I = 57 */
(PID.TID 0000.0001)                 4.600000000000000E+05,      /* I = 58 */
(PID.TID 0000.0001)                 4.680000000000000E+05,      /* I = 59 */
(PID.TID 0000.0001)                 4.760000000000000E+05,      /* I = 60 */
(PID.TID 0000.0001)                 4.840000000000000E+05,      /* I = 61 */
(PID.TID 0000.0001)                 4.920000000000000E+05,      /* I = 62 */
(PID.TID 0000.0001)                 5.000000000000000E+05,      /* I = 63 */
(PID.TID 0000.0001)                 5.080000000000000E+05,      /* I = 64 */
(PID.TID 0000.0001)                 5.160000000000000E+05       /* I = 65 */
(PID.TID 0000.0001)     ;
(PID.TID 0000.0001) yC =  /* yC(1,:,1,:) : P-point Y coord ( deg. or m if cartesian) */
(PID.TID 0000.0001)                 4.000000000000000E+03,      /* J =  1 */
(PID.TID 0000.0001)                 1.200000000000000E+04,      /* J =  2 */
(PID.TID 0000.0001)                 2.000000000000000E+04,      /* J =  3 */
(PID.TID 0000.0001)                 2.800000000000000E+04,      /* J =  4 */
(PID.TID 0000.0001)                 3.600000000000000E+04,      /* J =  5 */
(PID.TID 0000.0001)                 4.400000000000000E+04,      /* J =  6 */
(PID.TID 0000.0001)                 5.200000000000000E+04,      /* J =  7 */
(PID.TID 0000.0001)                 6.000000000000000E+04,      /* J =  8 */
(PID.TID 0000.0001)                 6.800000000000000E+04,      /* J =  9 */
(PID.TID 0000.0001)                 7.600000000000000E+04,      /* J = 10 */
(PID.TID 0000.0001)                 8.400000000000000E+04,      /* J = 11 */
(PID.TID 0000.0001)                 9.200000000000000E+04,      /* J = 12 */
(PID.TID 0000.0001)                 1.000000000000000E+05,      /* J = 13 */
(PID.TID 0000.0001)                 1.080000000000000E+05,      /* J = 14 */
(PID.TID 0000.0001)                 1.160000000000000E+05,      /* J = 15 */
(PID.TID 0000.0001)                 1.240000000000000E+05,      /* J = 16 */
(PID.TID 0000.0001)                 1.320000000000000E+05,      /* J = 17 */
(PID.TID 0000.0001)                 1.400000000000000E+05,      /* J = 18 */
(PID.TID 0000.0001)                 1.480000000000000E+05,      /* J = 19 */
(PID.TID 0000.0001)                 1.560000000000000E+05,      /* J = 20 */
(PID.TID 0000.0001)                 1.640000000000000E+05,      /* J = 21 */
(PID.TID 0000.0001)                 1.720000000000000E+05,      /* J = 22 */
(PID.TID 0000.0001)                 1.800000000000000E+05,      /* J = 23 */
(PID.TID 0000.0001)                 1.880000000000000E+05,      /* J = 24 */
(PID.TID 0000.0001)                 1.960000000000000E+05,      /* J = 25 */
(PID.TID 0000.0001)                 2.040000000000000E+05,      /* J = 26 */
(PID.TID 0000.0001)                 2.120000000000000E+05,      /* J = 27 */
(PID.TID 0000.0001)                 2.200000000000000E+05,      /* J = 28 */
(PID.TID 0000.0001)                 2.280000000000000E+05,      /* J = 29 */
(PID.TID 0000.0001)                 2.360000000000000E+05,      /* J = 30 */
(PID.TID 0000.0001)                 2.440000000000000E+05,      /* J = 31 */
(PID.TID 0000.0001)                 2.520000000000000E+05,      /* J = 32 */
(PID.TID 0000.0001)                 2.600000000000000E+05,      /* J = 33 */
(PID.TID 0000.0001)                 2.680000000000000E+05,      /* J = 34 */
(PID.TID 0000.0001)                 2.760000000000000E+05,      /* J = 35 */
(PID.TID 0000.0001)                 2.840000000000000E+05,      /* J = 36 */
(PID.TID 0000.0001)                 2.920000000000000E+05,      /* J = 37 */
(PID.TID 0000.0001)                 3.000000000000000E+05,      /* J = 38 */
(PID.TID 0000.0001)                 3.080000000000000E+05,      /* J = 39 */
(PID.TID 0000.0001)                 3.160000000000000E+05,      /* J = 40 */
(PID.TID 0000.0001)                 3.240000000000000E+05,      /* J = 41 */
(PID.TID 0000.0001)                 3.320000000000000E+05,      /* J = 42 */
(PID.TID 0000.0001)                 3.400000000000000E+05,      /* J = 43 */
(PID.TID 0000.0001)                 3.480000000000000E+05,      /* J = 44 */
(PID.TID 0000.0001)                 3.560000000000000E+05,      /* J = 45 */
(PID.TID 0000.0001)                 3.640000000000000E+05,      /* J = 46 */
(PID.TID 0000.0001)                 3.720000000000000E+05,      /* J = 47 */
(PID.TID 0000.0001)                 3.800000000000000E+05,      /* J = 48 */
(PID.TID 0000.0001)                 3.880000000000000E+05,      /* J = 49 */
(PID.TID 0000.0001)                 3.960000000000000E+05,      /* J = 50 */
(PID.TID 0000.0001)                 4.040000000000000E+05,      /* J = 51 */
(PID.TID 0000.0001)                 4.120000000000000E+05,      /* J = 52 */
(PID.TID 0000.0001)                 4.200000000000000E+05,      /* J = 53 */
(PID.TID 0000.0001)                 4.280000000000000E+05,      /* J = 54 */
(PID.TID 0000.0001)                 4.360000000000000E+05,      /* J = 55 */
(PID.TID 0000.0001)                 4.440000000000000E+05,      /* J = 56 */
(PID.TID 0000.0001)                 4.520000000000000E+05,      /* J = 57 */
(PID.TID 0000.0001)                 4.600000000000000E+05,      /* J = 58 */
(PID.TID 0000.0001)                 4.680000000000000E+05,      /* J = 59 */
(PID.TID 0000.0001)                 4.760000000000000E+05,      /* J = 60 */
(PID.TID 0000.0001)                 4.840000000000000E+05,      /* J = 61 */
(PID.TID 0000.0001)                 4.920000000000000E+05,      /* J = 62 */
(PID.TID 0000.0001)                 5.000000000000000E+05,      /* J = 63 */
(PID.TID 0000.0001)                 5.080000000000000E+05,      /* J = 64 */
(PID.TID 0000.0001)                 5.160000000000000E+05       /* J = 65 */
(PID.TID 0000.0001)     ;
(PID.TID 0000.0001) rcoord = /* P-point R coordinate (  units of r ) */
(PID.TID 0000.0001)                -5.000000000000000E+00       /* K =  1 */
(PID.TID 0000.0001)     ;
(PID.TID 0000.0001) rF =   /* W-Interf. R coordinate (  units of r ) */
(PID.TID 0000.0001)                 0.000000000000000E+00,      /* K =  1 */
(PID.TID 0000.0001)                -1.000000000000000E+01       /* K =  2 */
(PID.TID 0000.0001)     ;
(PID.TID 0000.0001) deepFacC = /* deep-model grid factor @ cell-Center (-) */
(PID.TID 0000.0001)                 1.000000000000000E+00       /* K =  1 */
(PID.TID 0000.0001)     ;
(PID.TID 0000.0001) deepFacF = /* deep-model grid factor @ W-Interface (-) */
(PID.TID 0000.0001)     2 @  1.000000000000000E+00              /* K =  1:  2 */
(PID.TID 0000.0001)     ;
(PID.TID 0000.0001) rVel2wUnit = /* convert units: rVel -> wSpeed (=1 if z-coord)*/
(PID.TID 0000.0001)     2 @  1.000000000000000E+00              /* K =  1:  2 */
(PID.TID 0000.0001)     ;
(PID.TID 0000.0001) wUnit2rVel = /* convert units: wSpeed -> rVel (=1 if z-coord)*/
(PID.TID 0000.0001)     2 @  1.000000000000000E+00              /* K =  1:  2 */
(PID.TID 0000.0001)     ;
(PID.TID 0000.0001) dBdrRef = /* Vertical grad. of reference buoyancy [(m/s/r)^2] */
(PID.TID 0000.0001)                 0.000000000000000E+00       /* K =  1 */
(PID.TID 0000.0001)     ;
(PID.TID 0000.0001) rotateGrid = /* use rotated grid ( True/False ) */
(PID.TID 0000.0001)                   F
(PID.TID 0000.0001)     ;
(PID.TID 0000.0001) phiEuler = /* Euler angle, rotation about original z-coordinate [rad] */
(PID.TID 0000.0001)                 0.000000000000000E+00
(PID.TID 0000.0001)     ;
(PID.TID 0000.0001) thetaEuler = /* Euler angle, rotation about new x-coordinate [rad] */
(PID.TID 0000.0001)                 0.000000000000000E+00
(PID.TID 0000.0001)     ;
(PID.TID 0000.0001) psiEuler = /* Euler angle, rotation about new z-coordinate [rad] */
(PID.TID 0000.0001)                 0.000000000000000E+00
(PID.TID 0000.0001)     ;
(PID.TID 0000.0001) dxF =  /* dxF(:,1,:,1) ( units: m ) */
(PID.TID 0000.0001)    65 @  8.000000000000000E+03              /* I =  1: 65 */
(PID.TID 0000.0001)     ;
(PID.TID 0000.0001) dxF =  /* dxF(1,:,1,:) ( units: m ) */
(PID.TID 0000.0001)    65 @  8.000000000000000E+03              /* J =  1: 65 */
(PID.TID 0000.0001)     ;
(PID.TID 0000.0001) dyF =  /* dyF(:,1,:,1) ( units: m ) */
(PID.TID 0000.0001)    65 @  8.000000000000000E+03              /* I =  1: 65 */
(PID.TID 0000.0001)     ;
(PID.TID 0000.0001) dyF =  /* dyF(1,:,1,:) ( units: m ) */
(PID.TID 0000.0001)    65 @  8.000000000000000E+03              /* J =  1: 65 */
(PID.TID 0000.0001)     ;
(PID.TID 0000.0001) dxG =  /* dxG(:,1,:,1) ( units: m ) */
(PID.TID 0000.0001)    65 @  8.000000000000000E+03              /* I =  1: 65 */
(PID.TID 0000.0001)     ;
(PID.TID 0000.0001) dxG =  /* dxG(1,:,1,:) ( units: m ) */
(PID.TID 0000.0001)    65 @  8.000000000000000E+03              /* J =  1: 65 */
(PID.TID 0000.0001)     ;
(PID.TID 0000.0001) dyG =  /* dyG(:,1,:,1) ( units: m ) */
(PID.TID 0000.0001)    65 @  8.000000000000000E+03              /* I =  1: 65 */
(PID.TID 0000.0001)     ;
(PID.TID 0000.0001) dyG =  /* dyG(1,:,1,:) ( units: m ) */
(PID.TID 0000.0001)    65 @  8.000000000000000E+03              /* J =  1: 65 */
(PID.TID 0000.0001)     ;
(PID.TID 0000.0001) dxC =  /* dxC(:,1,:,1) ( units: m ) */
(PID.TID 0000.0001)    65 @  8.000000000000000E+03              /* I =  1: 65 */
(PID.TID 0000.0001)     ;
(PID.TID 0000.0001) dxC =  /* dxC(1,:,1,:) ( units: m ) */
(PID.TID 0000.0001)    65 @  8.000000000000000E+03              /* J =  1: 65 */
(PID.TID 0000.0001)     ;
(PID.TID 0000.0001) dyC =  /* dyC(:,1,:,1) ( units: m ) */
(PID.TID 0000.0001)    65 @  8.000000000000000E+03              /* I =  1: 65 */
(PID.TID 0000.0001)     ;
(PID.TID 0000.0001) dyC =  /* dyC(1,:,1,:) ( units: m ) */
(PID.TID 0000.0001)    65 @  8.000000000000000E+03              /* J =  1: 65 */
(PID.TID 0000.0001)     ;
(PID.TID 0000.0001) dxV =  /* dxV(:,1,:,1) ( units: m ) */
(PID.TID 0000.0001)    65 @  8.000000000000000E+03              /* I =  1: 65 */
(PID.TID 0000.0001)     ;
(PID.TID 0000.0001) dxV =  /* dxV(1,:,1,:) ( units: m ) */
(PID.TID 0000.0001)    65 @  8.000000000000000E+03              /* J =  1: 65 */
(PID.TID 0000.0001)     ;
(PID.TID 0000.0001) dyU =  /* dyU(:,1,:,1) ( units: m ) */
(PID.TID 0000.0001)    65 @  8.000000000000000E+03              /* I =  1: 65 */
(PID.TID 0000.0001)     ;
(PID.TID 0000.0001) dyU =  /* dyU(1,:,1,:) ( units: m ) */
(PID.TID 0000.0001)    65 @  8.000000000000000E+03              /* J =  1: 65 */
(PID.TID 0000.0001)     ;
(PID.TID 0000.0001) rA  =  /* rA (:,1,:,1) ( units: m^2 ) */
(PID.TID 0000.0001)    65 @  6.400000000000000E+07              /* I =  1: 65 */
(PID.TID 0000.0001)     ;
(PID.TID 0000.0001) rA  =  /* rA (1,:,1,:) ( units: m^2 ) */
(PID.TID 0000.0001)    65 @  6.400000000000000E+07              /* J =  1: 65 */
(PID.TID 0000.0001)     ;
(PID.TID 0000.0001) rAw =  /* rAw(:,1,:,1) ( units: m^2 ) */
(PID.TID 0000.0001)    65 @  6.400000000000000E+07              /* I =  1: 65 */
(PID.TID 0000.0001)     ;
(PID.TID 0000.0001) rAw =  /* rAw(1,:,1,:) ( units: m^2 ) */
(PID.TID 0000.0001)    65 @  6.400000000000000E+07              /* J =  1: 65 */
(PID.TID 0000.0001)     ;
(PID.TID 0000.0001) rAs =  /* rAs(:,1,:,1) ( units: m^2 ) */
(PID.TID 0000.0001)    65 @  6.400000000000000E+07              /* I =  1: 65 */
(PID.TID 0000.0001)     ;
(PID.TID 0000.0001) rAs =  /* rAs(1,:,1,:) ( units: m^2 ) */
(PID.TID 0000.0001)    65 @  6.400000000000000E+07              /* J =  1: 65 */
(PID.TID 0000.0001)     ;
(PID.TID 0000.0001) globalArea = /* Integrated horizontal Area (m^2) */
(PID.TID 0000.0001)                 2.621440000000000E+11
(PID.TID 0000.0001)     ;
(PID.TID 0000.0001) // =======================================================
(PID.TID 0000.0001) // End of Model config. summary
(PID.TID 0000.0001) // =======================================================
(PID.TID 0000.0001) 
(PID.TID 0000.0001) == Packages configuration : Check & print summary ==
(PID.TID 0000.0001) 
(PID.TID 0000.0001) EXF_CHECK: #define ALLOW_EXF
(PID.TID 0000.0001) SEAICE_CHECK: #define ALLOW_SEAICE
(PID.TID 0000.0001) // =======================================================
(PID.TID 0000.0001) // Check Model config. (CONFIG_CHECK):
(PID.TID 0000.0001) // CONFIG_CHECK : Normal End
(PID.TID 0000.0001) // =======================================================
(PID.TID 0000.0001) 
(PID.TID 0000.0001)  MDS_READ_FIELD: opening global file: uVel_8000.bin
(PID.TID 0000.0001)  MDS_READ_FIELD: opening global file: vVel_8000.bin
(PID.TID 0000.0001) Start initial hydrostatic pressure computation
(PID.TID 0000.0001) Pressure is predetermined for buoyancyRelation OCEANIC
(PID.TID 0000.0001) 
(PID.TID 0000.0001)  write diagnostics summary to file ioUnit:      6
Iter.Nb:         0 ; Time(s):  0.0000000000000E+00
------------------------------------------------------------------------
2D/3D diagnostics: Number of lists:     1
------------------------------------------------------------------------
listId=    1 ; file name: snapshot
 nFlds, nActive,       freq     &     phase        , nLev               
   13  |   13  |         1.000000         0.000000 |   1
 levels:   1
 diag# | name   |   ipt  |  iMate | kLev|   count |   mate.C|           
   163 |SIuice  |      1 |      2 |   1 |       0 |       0 |
   164 |SIvice  |      2 |      1 |   1 |       0 |       0 |
   149 |SIheff  |      3 |      0 |   1 |       0 |
   146 |SIarea  |      4 |      0 |   1 |       0 |
   228 |SIshear |      5 |      0 |   1 |       0 |
   233 |SIcohes |      6 |      0 |   1 |       0 |
   221 |SIsig1  |      7 |      0 |   1 |       0 |
   222 |SIsig2  |      8 |      0 |   1 |       0 |
   231 |SIdamage|      9 |      0 |   1 |       0 |
   165 |SItaux  |     10 |     11 |   1 |       0 |       0 |
   166 |SItauy  |     11 |     10 |   1 |       0 |       0 |
   133 |EXFuwind|     12 |      0 |   1 |       0 |
   134 |EXFvwind|     13 |      0 |   1 |       0 |
------------------------------------------------------------------------
Global & Regional Statistics diagnostics: Number of lists:     0
------------------------------------------------------------------------
(PID.TID 0000.0001)  MDS_READ_FIELD: opening global file: thickness_aniso_8000.bin
(PID.TID 0000.0001)  MDS_READ_FIELD: opening global file: const_1.0_8000.bin
(PID.TID 0000.0001)  MDS_READ_FIELD: opening global file: const_00_8000.bin
(PID.TID 0000.0001) // =======================================================
(PID.TID 0000.0001) // Model current state
(PID.TID 0000.0001) // =======================================================
(PID.TID 0000.0001) 
(PID.TID 0000.0001) // =======================================================
(PID.TID 0000.0001) // Begin MONITOR dynamic field statistics
(PID.TID 0000.0001) // =======================================================
(PID.TID 0000.0001) %MON time_tsnumber                =                     0
(PID.TID 0000.0001) %MON time_secondsf                =   0.0000000000000E+00
(PID.TID 0000.0001) %MON dynstat_eta_max              =   0.0000000000000E+00
(PID.TID 0000.0001) %MON dynstat_eta_min              =   0.0000000000000E+00
(PID.TID 0000.0001) %MON dynstat_eta_mean             =   0.0000000000000E+00
(PID.TID 0000.0001) %MON dynstat_eta_sd               =   0.0000000000000E+00
(PID.TID 0000.0001) %MON dynstat_eta_del2             =   0.0000000000000E+00
(PID.TID 0000.0001) %MON dynstat_uvel_max             =   9.8437500000000E-03
(PID.TID 0000.0001) %MON dynstat_uvel_min             =  -9.8437500000000E-03
(PID.TID 0000.0001) %MON dynstat_uvel_mean            =   0.0000000000000E+00
(PID.TID 0000.0001) %MON dynstat_uvel_sd              =   5.7727978755972E-03
(PID.TID 0000.0001) %MON dynstat_uvel_del2            =   1.0089048364799E-20
(PID.TID 0000.0001) %MON dynstat_vvel_max             =   9.8437500000000E-03
(PID.TID 0000.0001) %MON dynstat_vvel_min             =  -9.8437500000000E-03
(PID.TID 0000.0001) %MON dynstat_vvel_mean            =   0.0000000000000E+00
(PID.TID 0000.0001) %MON dynstat_vvel_sd              =   5.7727978755972E-03
(PID.TID 0000.0001) %MON dynstat_vvel_del2            =   1.0089048364799E-20
(PID.TID 0000.0001) %MON dynstat_wvel_max             =   1.1914062500000E-05
(PID.TID 0000.0001) %MON dynstat_wvel_min             =  -1.1914062500000E-05
(PID.TID 0000.0001) %MON dynstat_wvel_mean            =   3.4694469519536E-25
(PID.TID 0000.0001) %MON dynstat_wvel_sd              =   1.7200872247780E-06
(PID.TID 0000.0001) %MON dynstat_wvel_del2            =   2.8187489626940E-08
(PID.TID 0000.0001) %MON dynstat_theta_max            =  -1.6200000000000E+00
(PID.TID 0000.0001) %MON dynstat_theta_min            =  -1.6200000000000E+00
(PID.TID 0000.0001) %MON dynstat_theta_mean           =  -1.6200000000000E+00
(PID.TID 0000.0001) %MON dynstat_theta_sd             =   0.0000000000000E+00
(PID.TID 0000.0001) %MON dynstat_theta_del2           =   0.0000000000000E+00
(PID.TID 0000.0001) %MON dynstat_salt_max             =   3.0000000000000E+01
(PID.TID 0000.0001) %MON dynstat_salt_min             =   3.0000000000000E+01
(PID.TID 0000.0001) %MON dynstat_salt_mean            =   3.0000000000000E+01
(PID.TID 0000.0001) %MON dynstat_salt_sd              =   0.0000000000000E+00
(PID.TID 0000.0001) %MON dynstat_salt_del2            =   0.0000000000000E+00
(PID.TID 0000.0001) %MON trAdv_CFL_u_max              =   0.0000000000000E+00
(PID.TID 0000.0001) %MON trAdv_CFL_v_max              =   0.0000000000000E+00
(PID.TID 0000.0001) %MON trAdv_CFL_w_max              =   0.0000000000000E+00
(PID.TID 0000.0001) %MON advcfl_uvel_max              =   3.0761718750000E-06
(PID.TID 0000.0001) %MON advcfl_vvel_max              =   3.0761718750000E-06
(PID.TID 0000.0001) %MON advcfl_wvel_max              =   5.9570312500000E-06
(PID.TID 0000.0001) %MON advcfl_W_hf_max              =   0.0000000000000E+00
(PID.TID 0000.0001) %MON pe_b_mean                    =   0.0000000000000E+00
(PID.TID 0000.0001) %MON ke_max                       =   9.0844726562500E-05
(PID.TID 0000.0001) %MON ke_mean                      =   3.2804489135742E-05
(PID.TID 0000.0001) %MON ke_vol                       =   2.6214400000000E+12
(PID.TID 0000.0001) %MON vort_r_min                   =  -7.8125000000000E-08
(PID.TID 0000.0001) %MON vort_r_max                   =   1.2304687500000E-06
(PID.TID 0000.0001) %MON vort_a_mean                  =   1.4856000000000E-04
(PID.TID 0000.0001) %MON vort_a_sd                    =   1.5312918562496E-06
(PID.TID 0000.0001) %MON vort_p_mean                  =   1.5552375000000E-04
(PID.TID 0000.0001) %MON vort_p_sd                    =   5.5921473110222E-05
(PID.TID 0000.0001) %MON surfExpan_theta_mean         =   0.0000000000000E+00
(PID.TID 0000.0001) %MON surfExpan_salt_mean          =   1.3877787807814E-23
(PID.TID 0000.0001) // =======================================================
(PID.TID 0000.0001) // End MONITOR dynamic field statistics
(PID.TID 0000.0001) // =======================================================
(PID.TID 0000.0001) // =======================================================
(PID.TID 0000.0001) // Begin MONITOR SEAICE statistics
(PID.TID 0000.0001) // =======================================================
(PID.TID 0000.0001) %MON seaice_tsnumber              =                     0
(PID.TID 0000.0001) %MON seaice_time_sec              =   0.0000000000000E+00
(PID.TID 0000.0001) %MON seaice_uice_max              =   0.0000000000000E+00
(PID.TID 0000.0001) %MON seaice_uice_min              =   0.0000000000000E+00
(PID.TID 0000.0001) %MON seaice_uice_mean             =   0.0000000000000E+00
(PID.TID 0000.0001) %MON seaice_uice_sd               =   0.0000000000000E+00
(PID.TID 0000.0001) %MON seaice_uice_del2             =   0.0000000000000E+00
(PID.TID 0000.0001) %MON seaice_vice_max              =   0.0000000000000E+00
(PID.TID 0000.0001) %MON seaice_vice_min              =   0.0000000000000E+00
(PID.TID 0000.0001) %MON seaice_vice_mean             =   0.0000000000000E+00
(PID.TID 0000.0001) %MON seaice_vice_sd               =   0.0000000000000E+00
(PID.TID 0000.0001) %MON seaice_vice_del2             =   0.0000000000000E+00
(PID.TID 0000.0001) %MON seaice_area_max              =   1.0000000000000E+00
(PID.TID 0000.0001) %MON seaice_area_min              =   1.0000000000000E+00
(PID.TID 0000.0001) %MON seaice_area_mean             =   1.0000000000000E+00
(PID.TID 0000.0001) %MON seaice_area_sd               =   0.0000000000000E+00
(PID.TID 0000.0001) %MON seaice_area_del2             =   0.0000000000000E+00
(PID.TID 0000.0001) %MON seaice_heff_max              =   3.0999867310186E-01
(PID.TID 0000.0001) %MON seaice_heff_min              =   2.9006056612617E-01
(PID.TID 0000.0001) %MON seaice_heff_mean             =   3.0067126525963E-01
(PID.TID 0000.0001) %MON seaice_heff_sd               =   5.0069223596193E-03
(PID.TID 0000.0001) %MON seaice_heff_del2             =   1.2853747988410E-05
(PID.TID 0000.0001) %MON seaice_hsnow_max             =   0.0000000000000E+00
(PID.TID 0000.0001) %MON seaice_hsnow_min             =   0.0000000000000E+00
(PID.TID 0000.0001) %MON seaice_hsnow_mean            =   0.0000000000000E+00
(PID.TID 0000.0001) %MON seaice_hsnow_sd              =   0.0000000000000E+00
(PID.TID 0000.0001) %MON seaice_hsnow_del2            =   0.0000000000000E+00
(PID.TID 0000.0001) // =======================================================
(PID.TID 0000.0001) // End MONITOR SEAICE statistics
(PID.TID 0000.0001) // =======================================================
(PID.TID 0000.0001)  MDS_READ_FIELD: opening global file: Uwindfield_shifted_8000.bin
(PID.TID 0000.0001)  MDS_READ_FIELD: opening global file: Uwindfield_shifted_8000.bin
(PID.TID 0000.0001)  MDS_READ_FIELD: opening global file: Vwindfield_shifted_8000.bin
(PID.TID 0000.0001)  MDS_READ_FIELD: opening global file: Vwindfield_shifted_8000.bin
(PID.TID 0000.0001) // =======================================================
(PID.TID 0000.0001) // Begin MONITOR EXF statistics
(PID.TID 0000.0001) // =======================================================
(PID.TID 0000.0001) %MON exf_tsnumber                 =                     0
(PID.TID 0000.0001) %MON exf_time_sec                 =   0.0000000000000E+00
(PID.TID 0000.0001) %MON exf_ustress_max              =   1.9231141691350E-01
(PID.TID 0000.0001) %MON exf_ustress_min              =  -1.9231141691350E-01
(PID.TID 0000.0001) %MON exf_ustress_mean             =  -8.4320106452651E-18
(PID.TID 0000.0001) %MON exf_ustress_sd               =   7.8445850617811E-02
(PID.TID 0000.0001) %MON exf_ustress_del2             =   1.8001144613245E-05
(PID.TID 0000.0001) %MON exf_vstress_max              =   1.9231141691350E-01
(PID.TID 0000.0001) %MON exf_vstress_min              =  -1.9231141691350E-01
(PID.TID 0000.0001) %MON exf_vstress_mean             =  -3.0929925287637E-18
(PID.TID 0000.0001) %MON exf_vstress_sd               =   7.8445850617811E-02
(PID.TID 0000.0001) %MON exf_vstress_del2             =   1.8001144613245E-05
(PID.TID 0000.0001) %MON exf_hflux_max                =   1.4838217697133E+02
(PID.TID 0000.0001) %MON exf_hflux_min                =   2.3433846067661E+01
(PID.TID 0000.0001) %MON exf_hflux_mean               =   1.0026753680428E+02
(PID.TID 0000.0001) %MON exf_hflux_sd                 =   3.0838562944901E+01
(PID.TID 0000.0001) %MON exf_hflux_del2               =   1.9427109427666E-02
(PID.TID 0000.0001) %MON exf_sflux_max                =   6.5752836695678E-08
(PID.TID 0000.0001) %MON exf_sflux_min                =   1.0404356137878E-08
(PID.TID 0000.0001) %MON exf_sflux_mean               =   4.4435192388582E-08
(PID.TID 0000.0001) %MON exf_sflux_sd                 =   1.3662828951091E-08
(PID.TID 0000.0001) %MON exf_sflux_del2               =   8.6031990164249E-12
(PID.TID 0000.0001) %MON exf_uwind_max                =   1.1026131745390E+01
(PID.TID 0000.0001) %MON exf_uwind_min                =  -1.1026131745390E+01
(PID.TID 0000.0001) %MON exf_uwind_mean               =   1.2732925824821E-17
(PID.TID 0000.0001) %MON exf_uwind_sd                 =   5.7462157775969E+00
(PID.TID 0000.0001) %MON exf_uwind_del2               =   9.3546309493694E-04
(PID.TID 0000.0001) %MON exf_vwind_max                =   1.1026131745390E+01
(PID.TID 0000.0001) %MON exf_vwind_min                =  -1.1026131745390E+01
(PID.TID 0000.0001) %MON exf_vwind_mean               =  -9.7179508884437E-17
(PID.TID 0000.0001) %MON exf_vwind_sd                 =   5.7462157775969E+00
(PID.TID 0000.0001) %MON exf_vwind_del2               =   9.3546309493693E-04
(PID.TID 0000.0001) %MON exf_wspeed_max               =   1.1036379708204E+01
(PID.TID 0000.0001) %MON exf_wspeed_min               =   1.6037210808494E+00
(PID.TID 0000.0001) %MON exf_wspeed_mean              =   7.8300458826945E+00
(PID.TID 0000.0001) %MON exf_wspeed_sd                =   2.1744822372939E+00
(PID.TID 0000.0001) %MON exf_wspeed_del2              =   1.6416115697052E-03
(PID.TID 0000.0001) %MON exf_evap_max                 =   6.5752836695678E-08
(PID.TID 0000.0001) %MON exf_evap_min                 =   1.0404356137878E-08
(PID.TID 0000.0001) %MON exf_evap_mean                =   4.4435192388582E-08
(PID.TID 0000.0001) %MON exf_evap_sd                  =   1.3662828951091E-08
(PID.TID 0000.0001) %MON exf_evap_del2                =   8.6031990164249E-12
(PID.TID 0000.0001) // =======================================================
(PID.TID 0000.0001) // End MONITOR EXF statistics
(PID.TID 0000.0001) // =======================================================
(PID.TID 0000.0001)  S/R SEAICE_KRYLOV: Picard iterate / total, KRYLOVgamma_lin, initial norm =       1      1 0.10000E+00 0.11420E+00
(PID.TID 0000.0001)  S/R SEAICE_KRYLOV: Picard iterate / total =      1 /      1, Nb. of FGMRES iterations =      1
(PID.TID 0000.0001)  S/R SEAICE_KRYLOV: Picard iterate / total, KRYLOVgamma_lin, initial norm =       2      2 0.50000E-01 0.19542E-03
(PID.TID 0000.0001)  S/R SEAICE_KRYLOV: Picard iterate / total =      2 /      2, Nb. of FGMRES iterations =      1
(PID.TID 0000.0001)  S/R SEAICE_KRYLOV: Picard iterate / total, KRYLOVgamma_lin, initial norm =       3      3 0.50000E-01 0.96561E-04
(PID.TID 0000.0001)  S/R SEAICE_KRYLOV: Picard iterate / total =      3 /      3, Nb. of FGMRES iterations =      1
(PID.TID 0000.0001)  S/R SEAICE_KRYLOV: Picard iterate / total, KRYLOVgamma_lin, initial norm =       4      4 0.33333E-01 0.48281E-04
(PID.TID 0000.0001)  S/R SEAICE_KRYLOV: Picard iterate / total =      4 /      4, Nb. of FGMRES iterations =      1
(PID.TID 0000.0001)  S/R SEAICE_KRYLOV: Picard iterate / total, KRYLOVgamma_lin, initial norm =       5      5 0.33333E-01 0.24141E-04
(PID.TID 0000.0001)  S/R SEAICE_KRYLOV: Picard iterate / total =      5 /      5, Nb. of FGMRES iterations =      1
(PID.TID 0000.0001)  S/R SEAICE_KRYLOV: Picard iterate / total, KRYLOVgamma_lin, initial norm =       6      6 0.33333E-01 0.12070E-04
(PID.TID 0000.0001)  S/R SEAICE_KRYLOV: Picard iterate / total =      6 /      6, Nb. of FGMRES iterations =      1
(PID.TID 0000.0001)  S/R SEAICE_KRYLOV: Picard iterate / total, KRYLOVgamma_lin, initial norm =       7      7 0.33333E-01 0.60352E-05
(PID.TID 0000.0001)  S/R SEAICE_KRYLOV: Picard iterate / total =      7 /      7, Nb. of FGMRES iterations =      1
(PID.TID 0000.0001)  S/R SEAICE_KRYLOV: Picard iterate / total, KRYLOVgamma_lin, initial norm =       8      8 0.25000E-01 0.30176E-05
(PID.TID 0000.0001)  S/R SEAICE_KRYLOV: Picard iterate / total =      8 /      8, Nb. of FGMRES iterations =      1
(PID.TID 0000.0001)  S/R SEAICE_KRYLOV: Picard iterate / total, KRYLOVgamma_lin, initial norm =       9      9 0.20000E-01 0.15088E-05
(PID.TID 0000.0001)  S/R SEAICE_KRYLOV: Picard iterate / total =      9 /      9, Nb. of FGMRES iterations =      1
(PID.TID 0000.0001)  S/R SEAICE_KRYLOV: Picard iterate / total, KRYLOVgamma_lin, initial norm =      10     10 0.12500E-01 0.75439E-06
(PID.TID 0000.0001)  S/R SEAICE_KRYLOV: Picard iterate / total =     10 /     10, Nb. of FGMRES iterations =      1
(PID.TID 0000.0001)  S/R SEAICE_KRYLOV: Picard iterate / total, KRYLOVgamma_lin, initial norm =      11     11 0.12500E-01 0.37720E-06
(PID.TID 0000.0001)  S/R SEAICE_KRYLOV: Picard iterate / total =     11 /     11, Nb. of FGMRES iterations =      1
(PID.TID 0000.0001)  S/R SEAICE_KRYLOV: Picard iterate / total, KRYLOVgamma_lin, initial norm =      12     12 0.12500E-01 0.18860E-06
(PID.TID 0000.0001)  S/R SEAICE_KRYLOV: Picard iterate / total =     12 /     12, Nb. of FGMRES iterations =      1
(PID.TID 0000.0001)  S/R SEAICE_KRYLOV: Picard iterate / total, KRYLOVgamma_lin, initial norm =      13     13 0.12500E-01 0.94299E-07
(PID.TID 0000.0001)  S/R SEAICE_KRYLOV: Picard iterate / total =     13 /     13, Nb. of FGMRES iterations =      1
(PID.TID 0000.0001)  S/R SEAICE_KRYLOV: Picard iterate / total, KRYLOVgamma_lin, initial norm =      14     14 0.12500E-01 0.47150E-07
(PID.TID 0000.0001)  S/R SEAICE_KRYLOV: Picard iterate / total =     14 /     14, Nb. of FGMRES iterations =      1
(PID.TID 0000.0001)  S/R SEAICE_KRYLOV: Picard iterate / total, KRYLOVgamma_lin, initial norm =      15     15 0.12500E-01 0.23575E-07
(PID.TID 0000.0001)  S/R SEAICE_KRYLOV: Picard iterate / total =     15 /     15, Nb. of FGMRES iterations =      1
(PID.TID 0000.0001)  S/R SEAICE_KRYLOV: Picard iterate / total, KRYLOVgamma_lin, initial norm =      16     16 0.12500E-01 0.11787E-07
(PID.TID 0000.0001)  S/R SEAICE_KRYLOV: Picard iterate / total =     16 /     16, Nb. of FGMRES iterations =      1
(PID.TID 0000.0001)  S/R SEAICE_KRYLOV: Picard iterate / total, KRYLOVgamma_lin, initial norm =      17     17 0.12500E-01 0.58937E-08
(PID.TID 0000.0001)  S/R SEAICE_KRYLOV: Picard iterate / total =     17 /     17, Nb. of FGMRES iterations =      1
(PID.TID 0000.0001)  S/R SEAICE_KRYLOV: Picard iterate / total, KRYLOVgamma_lin, initial norm =      18     18 0.12500E-01 0.29469E-08
(PID.TID 0000.0001)  S/R SEAICE_KRYLOV: Picard iterate / total =     18 /     18, Nb. of FGMRES iterations =      1
(PID.TID 0000.0001)  S/R SEAICE_KRYLOV: Picard iterate / total, KRYLOVgamma_lin, initial norm =      19     19 0.12500E-01 0.14734E-08
(PID.TID 0000.0001)  S/R SEAICE_KRYLOV: Picard iterate / total =     19 /     19, Nb. of FGMRES iterations =      1
(PID.TID 0000.0001)  S/R SEAICE_KRYLOV: Picard iterate / total, KRYLOVgamma_lin, initial norm =      20     20 0.12500E-01 0.73671E-09
(PID.TID 0000.0001)  S/R SEAICE_KRYLOV: Picard iterate / total =     20 /     20, Nb. of FGMRES iterations =      1
(PID.TID 0000.0001)  S/R SEAICE_KRYLOV: Picard iterate / total, KRYLOVgamma_lin, initial norm =      21     21 0.12500E-01 0.36836E-09
(PID.TID 0000.0001)  S/R SEAICE_KRYLOV: Picard iterate / total =     21 /     21, Nb. of FGMRES iterations =      1
(PID.TID 0000.0001)  S/R SEAICE_KRYLOV: Picard iterate / total, KRYLOVgamma_lin, initial norm =      22     22 0.12500E-01 0.18418E-09
(PID.TID 0000.0001)  S/R SEAICE_KRYLOV: Picard iterate / total =     22 /     22, Nb. of FGMRES iterations =      1
(PID.TID 0000.0001)  S/R SEAICE_KRYLOV: Picard iterate / total, KRYLOVgamma_lin, initial norm =      23     23 0.12500E-01 0.92089E-10
(PID.TID 0000.0001)  S/R SEAICE_KRYLOV: Picard iterate / total =     23 /     23, Nb. of FGMRES iterations =      1
(PID.TID 0000.0001)  S/R SEAICE_KRYLOV: Picard iterate / total, KRYLOVgamma_lin, initial norm =      24     24 0.12500E-01 0.46045E-10
(PID.TID 0000.0001)  S/R SEAICE_KRYLOV: Picard iterate / total =     24 /     24, Nb. of FGMRES iterations =      1
(PID.TID 0000.0001)  S/R SEAICE_KRYLOV: Picard iterate / total, KRYLOVgamma_lin, initial norm =      25     25 0.12500E-01 0.23022E-10
(PID.TID 0000.0001)  S/R SEAICE_KRYLOV: Picard iterate / total =     25 /     25, Nb. of FGMRES iterations =      1
(PID.TID 0000.0001)  S/R SEAICE_KRYLOV: Picard iterate / total, KRYLOVgamma_lin, initial norm =      26     26 0.12500E-01 0.11511E-10
(PID.TID 0000.0001)  S/R SEAICE_KRYLOV: Picard iterate / total =     26 /     26, Nb. of FGMRES iterations =      1
(PID.TID 0000.0001)  S/R SEAICE_KRYLOV: Picard iterate / total, KRYLOVgamma_lin, initial norm =      27     27 0.12500E-01 0.57556E-11
(PID.TID 0000.0001)  S/R SEAICE_KRYLOV: Picard iterate / total =     27 /     27, Nb. of FGMRES iterations =      1
(PID.TID 0000.0001)  S/R SEAICE_KRYLOV: Picard iterate / total, KRYLOVgamma_lin, initial norm =      28     28 0.12500E-01 0.28778E-11
(PID.TID 0000.0001)  S/R SEAICE_KRYLOV: Picard iterate / total =     28 /     28, Nb. of FGMRES iterations =      1
(PID.TID 0000.0001)  S/R SEAICE_KRYLOV: Picard iterate / total, KRYLOVgamma_lin, initial norm =      29     29 0.12500E-01 0.14389E-11
(PID.TID 0000.0001)  S/R SEAICE_KRYLOV: Picard iterate / total =     29 /     29, Nb. of FGMRES iterations =      1
(PID.TID 0000.0001)  S/R SEAICE_KRYLOV: Picard iterate / total, KRYLOVgamma_lin, initial norm =      30     30 0.12500E-01 0.71945E-12
(PID.TID 0000.0001)  S/R SEAICE_KRYLOV: Picard iterate / total =     30 /     30, Nb. of FGMRES iterations =      1
(PID.TID 0000.0001)  S/R SEAICE_KRYLOV: Picard iterate / total, KRYLOVgamma_lin, initial norm =      31     31 0.12500E-01 0.35972E-12
(PID.TID 0000.0001)  S/R SEAICE_KRYLOV: Picard iterate / total =     31 /     31, Nb. of FGMRES iterations =      1
(PID.TID 0000.0001)  S/R SEAICE_KRYLOV: Picard iterate / total, KRYLOVgamma_lin, initial norm =      32     32 0.12500E-01 0.17986E-12
(PID.TID 0000.0001)  S/R SEAICE_KRYLOV: Picard iterate / total =     32 /     32, Nb. of FGMRES iterations =      1
(PID.TID 0000.0001)  S/R SEAICE_KRYLOV: Picard iterate / total, KRYLOVgamma_lin, final   norm =      33     33 0.12500E-01 0.89931E-13
(PID.TID 0000.0001)  // =======================================================
(PID.TID 0000.0001)  // Begin KRYLOV statistics
(PID.TID 0000.0001)  // =======================================================
(PID.TID 0000.0001)  %KRYLOV_MON: time step              =          1
(PID.TID 0000.0001)  %KRYLOV_MON: Nb. of time steps      =          1
(PID.TID 0000.0001)  %KRYLOV_MON: Nb. of Picard steps    =         33
(PID.TID 0000.0001)  %KRYLOV_MON: Nb. of Krylov steps    =         32
(PID.TID 0000.0001)  %KRYLOV_MON: Nb. of Picard failures =          0
(PID.TID 0000.0001)  %KRYLOV_MON: Nb. of Krylov failures =          0
(PID.TID 0000.0001)  // =======================================================
(PID.TID 0000.0001)  // End KRYLOV statistics
(PID.TID 0000.0001)  // =======================================================
(PID.TID 0000.0001)  S/R SEAICE_KRYLOV: Total number FGMRES iterations =     32 in timestep          1
(PID.TID 0000.0001) // =======================================================
(PID.TID 0000.0001) // Begin MONITOR dynamic field statistics
(PID.TID 0000.0001) // =======================================================
(PID.TID 0000.0001) %MON time_tsnumber                =                     1
(PID.TID 0000.0001) %MON time_secondsf                =   2.5000000000000E+00
(PID.TID 0000.0001) %MON dynstat_eta_max              =   0.0000000000000E+00
(PID.TID 0000.0001) %MON dynstat_eta_min              =   0.0000000000000E+00
(PID.TID 0000.0001) %MON dynstat_eta_mean             =   0.0000000000000E+00
(PID.TID 0000.0001) %MON dynstat_eta_sd               =   0.0000000000000E+00
(PID.TID 0000.0001) %MON dynstat_eta_del2             =   0.0000000000000E+00
(PID.TID 0000.0001) %MON dynstat_uvel_max             =   9.8437500000000E-03
(PID.TID 0000.0001) %MON dynstat_uvel_min             =  -9.8437500000000E-03
(PID.TID 0000.0001) %MON dynstat_uvel_mean            =   0.0000000000000E+00
(PID.TID 0000.0001) %MON dynstat_uvel_sd              =   5.7727978755972E-03
(PID.TID 0000.0001) %MON dynstat_uvel_del2            =   1.0089048364799E-20
(PID.TID 0000.0001) %MON dynstat_vvel_max             =   9.8437500000000E-03
(PID.TID 0000.0001) %MON dynstat_vvel_min             =  -9.8437500000000E-03
(PID.TID 0000.0001) %MON dynstat_vvel_mean            =   0.0000000000000E+00
(PID.TID 0000.0001) %MON dynstat_vvel_sd              =   5.7727978755972E-03
(PID.TID 0000.0001) %MON dynstat_vvel_del2            =   1.0089048364799E-20
(PID.TID 0000.0001) %MON dynstat_wvel_max             =   1.1914062500000E-05
(PID.TID 0000.0001) %MON dynstat_wvel_min             =  -1.1914062500000E-05
(PID.TID 0000.0001) %MON dynstat_wvel_mean            =   3.4694469519536E-25
(PID.TID 0000.0001) %MON dynstat_wvel_sd              =   1.7200872247780E-06
(PID.TID 0000.0001) %MON dynstat_wvel_del2            =   2.8187489626940E-08
(PID.TID 0000.0001) %MON dynstat_theta_max            =  -1.6200000000000E+00
(PID.TID 0000.0001) %MON dynstat_theta_min            =  -1.6200000000000E+00
(PID.TID 0000.0001) %MON dynstat_theta_mean           =  -1.6200000000000E+00
(PID.TID 0000.0001) %MON dynstat_theta_sd             =   0.0000000000000E+00
(PID.TID 0000.0001) %MON dynstat_theta_del2           =   0.0000000000000E+00
(PID.TID 0000.0001) %MON dynstat_salt_max             =   3.0000000000000E+01
(PID.TID 0000.0001) %MON dynstat_salt_min             =   3.0000000000000E+01
(PID.TID 0000.0001) %MON dynstat_salt_mean            =   3.0000000000000E+01
(PID.TID 0000.0001) %MON dynstat_salt_sd              =   0.0000000000000E+00
(PID.TID 0000.0001) %MON dynstat_salt_del2            =   0.0000000000000E+00
(PID.TID 0000.0001) %MON trAdv_CFL_u_max              =   3.0761718750000E-06
(PID.TID 0000.0001) %MON trAdv_CFL_v_max              =   3.0761718750000E-06
(PID.TID 0000.0001) %MON trAdv_CFL_w_max              =   2.9785156250000E-06
(PID.TID 0000.0001) %MON advcfl_uvel_max              =   3.0761718750000E-06
(PID.TID 0000.0001) %MON advcfl_vvel_max              =   3.0761718750000E-06
(PID.TID 0000.0001) %MON advcfl_wvel_max              =   5.9570312500000E-06
(PID.TID 0000.0001) %MON advcfl_W_hf_max              =   0.0000000000000E+00
(PID.TID 0000.0001) %MON pe_b_mean                    =   0.0000000000000E+00
(PID.TID 0000.0001) %MON ke_max                       =   9.0844726562500E-05
(PID.TID 0000.0001) %MON ke_mean                      =   3.2804489135742E-05
(PID.TID 0000.0001) %MON ke_vol                       =   2.6214400000000E+12
(PID.TID 0000.0001) %MON vort_r_min                   =  -7.8125000000000E-08
(PID.TID 0000.0001) %MON vort_r_max                   =   1.2304687500000E-06
(PID.TID 0000.0001) %MON vort_a_mean                  =   1.4856000000000E-04
(PID.TID 0000.0001) %MON vort_a_sd                    =   1.5312918562496E-06
(PID.TID 0000.0001) %MON vort_p_mean                  =   1.5552375000000E-04
(PID.TID 0000.0001) %MON vort_p_sd                    =   5.5921473110222E-05
(PID.TID 0000.0001) %MON surfExpan_theta_mean         =   0.0000000000000E+00
(PID.TID 0000.0001) %MON surfExpan_salt_mean          =   1.3877787807814E-23
(PID.TID 0000.0001) // =======================================================
(PID.TID 0000.0001) // End MONITOR dynamic field statistics
(PID.TID 0000.0001) // =======================================================
(PID.TID 0000.0001) // =======================================================
(PID.TID 0000.0001) // Begin MONITOR SEAICE statistics
(PID.TID 0000.0001) // =======================================================
(PID.TID 0000.0001) %MON seaice_tsnumber              =                     1
(PID.TID 0000.0001) %MON seaice_time_sec              =   2.5000000000000E+00
(PID.TID 0000.0001) %MON seaice_uice_max              =   1.7542640102750E-03
(PID.TID 0000.0001) %MON seaice_uice_min              =  -1.7969956199743E-03
(PID.TID 0000.0001) %MON seaice_uice_mean             =  -4.6763699212398E-08
(PID.TID 0000.0001) %MON seaice_uice_sd               =   7.5487939948445E-04
(PID.TID 0000.0001) %MON seaice_uice_del2             =   1.6922143286586E-07
(PID.TID 0000.0001) %MON seaice_vice_max              =   1.7111243523858E-03
(PID.TID 0000.0001) %MON seaice_vice_min              =  -1.7344359772174E-03
(PID.TID 0000.0001) %MON seaice_vice_mean             =   1.9512441866225E-07
(PID.TID 0000.0001) %MON seaice_vice_sd               =   7.5114009728235E-04
(PID.TID 0000.0001) %MON seaice_vice_del2             =   1.6786619984667E-07
(PID.TID 0000.0001) %MON seaice_area_max              =   1.0000000000000E+00
(PID.TID 0000.0001) %MON seaice_area_min              =   9.9999992127119E-01
(PID.TID 0000.0001) %MON seaice_area_mean             =   9.9999999570750E-01
(PID.TID 0000.0001) %MON seaice_area_sd               =   1.0789794550568E-08
(PID.TID 0000.0001) %MON seaice_area_del2             =   1.5121813730446E-10
(PID.TID 0000.0001) %MON seaice_heff_max              =   3.0999867197300E-01
(PID.TID 0000.0001) %MON seaice_heff_min              =   2.9006056493844E-01
(PID.TID 0000.0001) %MON seaice_heff_mean             =   3.0067126525963E-01
(PID.TID 0000.0001) %MON seaice_heff_sd               =   5.0069224096608E-03
(PID.TID 0000.0001) %MON seaice_heff_del2             =   1.2853747819574E-05
(PID.TID 0000.0001) %MON seaice_hsnow_max             =   0.0000000000000E+00
(PID.TID 0000.0001) %MON seaice_hsnow_min             =   0.0000000000000E+00
(PID.TID 0000.0001) %MON seaice_hsnow_mean            =   0.0000000000000E+00
(PID.TID 0000.0001) %MON seaice_hsnow_sd              =   0.0000000000000E+00
(PID.TID 0000.0001) %MON seaice_hsnow_del2            =   0.0000000000000E+00
(PID.TID 0000.0001) // =======================================================
(PID.TID 0000.0001) // End MONITOR SEAICE statistics
(PID.TID 0000.0001) // =======================================================
 Computing Diagnostic #    163  SIuice       Counter:       1   Parms: UU      M1      
           Vector  Mate for  SIuice       Diagnostic #    164  SIvice   exists 
 Computing Diagnostic #    164  SIvice       Counter:       1   Parms: VV      M1      
           Vector  Mate for  SIvice       Diagnostic #    163  SIuice   exists 
 Computing Diagnostic #    149  SIheff       Counter:       1   Parms: SM      M1      
 Computing Diagnostic #    146  SIarea       Counter:       1   Parms: SM      M1      
 Computing Diagnostic #    228  SIshear      Counter:       1   Parms: SM      M1      
 Computing Diagnostic #    233  SIcohes      Counter:       1   Parms: SM      M1      
 Computing Diagnostic #    221  SIsig1       Counter:       1   Parms: SM      M1      
 Computing Diagnostic #    222  SIsig2       Counter:       1   Parms: SM      M1      
 Computing Diagnostic #    231  SIdamage     Counter:       1   Parms: SM      M1      
 Computing Diagnostic #    165  SItaux       Counter:       1   Parms: UU      U1      
           Vector  Mate for  SItaux       Diagnostic #    166  SItauy   exists 
 Computing Diagnostic #    166  SItauy       Counter:       1   Parms: VV      U1      
           Vector  Mate for  SItauy       Diagnostic #    165  SItaux   exists 
 Computing Diagnostic #    133  EXFuwind     Counter:       1   Parms: UM      U1      
 Computing Diagnostic #    134  EXFvwind     Counter:       1   Parms: VM      U1      
(PID.TID 0000.0001)  S/R SEAICE_KRYLOV: Picard iterate / total, KRYLOVgamma_lin, initial norm =       1    101 0.10000E+00 0.11381E+00
(PID.TID 0000.0001)  S/R SEAICE_KRYLOV: Picard iterate / total =      1 /    101, Nb. of FGMRES iterations =      1
(PID.TID 0000.0001)  S/R SEAICE_KRYLOV: Picard iterate / total, KRYLOVgamma_lin, initial norm =       2    102 0.50000E-01 0.16949E-03
(PID.TID 0000.0001)  S/R SEAICE_KRYLOV: Picard iterate / total =      2 /    102, Nb. of FGMRES iterations =      1
(PID.TID 0000.0001)  S/R SEAICE_KRYLOV: Picard iterate / total, KRYLOVgamma_lin, initial norm =       3    103 0.50000E-01 0.83383E-04
(PID.TID 0000.0001)  S/R SEAICE_KRYLOV: Picard iterate / total =      3 /    103, Nb. of FGMRES iterations =      1
(PID.TID 0000.0001)  S/R SEAICE_KRYLOV: Picard iterate / total, KRYLOVgamma_lin, initial norm =       4    104 0.33333E-01 0.41693E-04
(PID.TID 0000.0001)  S/R SEAICE_KRYLOV: Picard iterate / total =      4 /    104, Nb. of FGMRES iterations =      1
(PID.TID 0000.0001)  S/R SEAICE_KRYLOV: Picard iterate / total, KRYLOVgamma_lin, initial norm =       5    105 0.33333E-01 0.20846E-04
(PID.TID 0000.0001)  S/R SEAICE_KRYLOV: Picard iterate / total =      5 /    105, Nb. of FGMRES iterations =      1
(PID.TID 0000.0001)  S/R SEAICE_KRYLOV: Picard iterate / total, KRYLOVgamma_lin, initial norm =       6    106 0.33333E-01 0.10423E-04
(PID.TID 0000.0001)  S/R SEAICE_KRYLOV: Picard iterate / total =      6 /    106, Nb. of FGMRES iterations =      1
(PID.TID 0000.0001)  S/R SEAICE_KRYLOV: Picard iterate / total, KRYLOVgamma_lin, initial norm =       7    107 0.33333E-01 0.52116E-05
(PID.TID 0000.0001)  S/R SEAICE_KRYLOV: Picard iterate / total =      7 /    107, Nb. of FGMRES iterations =      1
(PID.TID 0000.0001)  S/R SEAICE_KRYLOV: Picard iterate / total, KRYLOVgamma_lin, initial norm =       8    108 0.25000E-01 0.26058E-05
(PID.TID 0000.0001)  S/R SEAICE_KRYLOV: Picard iterate / total =      8 /    108, Nb. of FGMRES iterations =      1
(PID.TID 0000.0001)  S/R SEAICE_KRYLOV: Picard iterate / total, KRYLOVgamma_lin, initial norm =       9    109 0.20000E-01 0.13029E-05
(PID.TID 0000.0001)  S/R SEAICE_KRYLOV: Picard iterate / total =      9 /    109, Nb. of FGMRES iterations =      1
(PID.TID 0000.0001)  S/R SEAICE_KRYLOV: Picard iterate / total, KRYLOVgamma_lin, initial norm =      10    110 0.12500E-01 0.65145E-06
(PID.TID 0000.0001)  S/R SEAICE_KRYLOV: Picard iterate / total =     10 /    110, Nb. of FGMRES iterations =      1
(PID.TID 0000.0001)  S/R SEAICE_KRYLOV: Picard iterate / total, KRYLOVgamma_lin, initial norm =      11    111 0.12500E-01 0.32572E-06
(PID.TID 0000.0001)  S/R SEAICE_KRYLOV: Picard iterate / total =     11 /    111, Nb. of FGMRES iterations =      1
(PID.TID 0000.0001)  S/R SEAICE_KRYLOV: Picard iterate / total, KRYLOVgamma_lin, initial norm =      12    112 0.12500E-01 0.16286E-06
(PID.TID 0000.0001)  S/R SEAICE_KRYLOV: Picard iterate / total =     12 /    112, Nb. of FGMRES iterations =      1
(PID.TID 0000.0001)  S/R SEAICE_KRYLOV: Picard iterate / total, KRYLOVgamma_lin, initial norm =      13    113 0.12500E-01 0.81431E-07
(PID.TID 0000.0001)  S/R SEAICE_KRYLOV: Picard iterate / total =     13 /    113, Nb. of FGMRES iterations =      1
(PID.TID 0000.0001)  S/R SEAICE_KRYLOV: Picard iterate / total, KRYLOVgamma_lin, initial norm =      14    114 0.12500E-01 0.40715E-07
(PID.TID 0000.0001)  S/R SEAICE_KRYLOV: Picard iterate / total =     14 /    114, Nb. of FGMRES iterations =      1
(PID.TID 0000.0001)  S/R SEAICE_KRYLOV: Picard iterate / total, KRYLOVgamma_lin, initial norm =      15    115 0.12500E-01 0.20358E-07
(PID.TID 0000.0001)  S/R SEAICE_KRYLOV: Picard iterate / total =     15 /    115, Nb. of FGMRES iterations =      1
(PID.TID 0000.0001)  S/R SEAICE_KRYLOV: Picard iterate / total, KRYLOVgamma_lin, initial norm =      16    116 0.12500E-01 0.10179E-07
(PID.TID 0000.0001)  S/R SEAICE_KRYLOV: Picard iterate / total =     16 /    116, Nb. of FGMRES iterations =      1
(PID.TID 0000.0001)  S/R SEAICE_KRYLOV: Picard iterate / total, KRYLOVgamma_lin, initial norm =      17    117 0.12500E-01 0.50894E-08
(PID.TID 0000.0001)  S/R SEAICE_KRYLOV: Picard iterate / total =     17 /    117, Nb. of FGMRES iterations =      1
(PID.TID 0000.0001)  S/R SEAICE_KRYLOV: Picard iterate / total, KRYLOVgamma_lin, initial norm =      18    118 0.12500E-01 0.25447E-08
(PID.TID 0000.0001)  S/R SEAICE_KRYLOV: Picard iterate / total =     18 /    118, Nb. of FGMRES iterations =      1
(PID.TID 0000.0001)  S/R SEAICE_KRYLOV: Picard iterate / total, KRYLOVgamma_lin, initial norm =      19    119 0.12500E-01 0.12724E-08
(PID.TID 0000.0001)  S/R SEAICE_KRYLOV: Picard iterate / total =     19 /    119, Nb. of FGMRES iterations =      1
(PID.TID 0000.0001)  S/R SEAICE_KRYLOV: Picard iterate / total, KRYLOVgamma_lin, initial norm =      20    120 0.12500E-01 0.63618E-09
(PID.TID 0000.0001)  S/R SEAICE_KRYLOV: Picard iterate / total =     20 /    120, Nb. of FGMRES iterations =      1
(PID.TID 0000.0001)  S/R SEAICE_KRYLOV: Picard iterate / total, KRYLOVgamma_lin, initial norm =      21    121 0.12500E-01 0.31809E-09
(PID.TID 0000.0001)  S/R SEAICE_KRYLOV: Picard iterate / total =     21 /    121, Nb. of FGMRES iterations =      1
(PID.TID 0000.0001)  S/R SEAICE_KRYLOV: Picard iterate / total, KRYLOVgamma_lin, initial norm =      22    122 0.12500E-01 0.15904E-09
(PID.TID 0000.0001)  S/R SEAICE_KRYLOV: Picard iterate / total =     22 /    122, Nb. of FGMRES iterations =      1
(PID.TID 0000.0001)  S/R SEAICE_KRYLOV: Picard iterate / total, KRYLOVgamma_lin, initial norm =      23    123 0.12500E-01 0.79522E-10
(PID.TID 0000.0001)  S/R SEAICE_KRYLOV: Picard iterate / total =     23 /    123, Nb. of FGMRES iterations =      1
(PID.TID 0000.0001)  S/R SEAICE_KRYLOV: Picard iterate / total, KRYLOVgamma_lin, initial norm =      24    124 0.12500E-01 0.39761E-10
(PID.TID 0000.0001)  S/R SEAICE_KRYLOV: Picard iterate / total =     24 /    124, Nb. of FGMRES iterations =      1
(PID.TID 0000.0001)  S/R SEAICE_KRYLOV: Picard iterate / total, KRYLOVgamma_lin, initial norm =      25    125 0.12500E-01 0.19881E-10
(PID.TID 0000.0001)  S/R SEAICE_KRYLOV: Picard iterate / total =     25 /    125, Nb. of FGMRES iterations =      1
(PID.TID 0000.0001)  S/R SEAICE_KRYLOV: Picard iterate / total, KRYLOVgamma_lin, initial norm =      26    126 0.12500E-01 0.99403E-11
(PID.TID 0000.0001)  S/R SEAICE_KRYLOV: Picard iterate / total =     26 /    126, Nb. of FGMRES iterations =      1
(PID.TID 0000.0001)  S/R SEAICE_KRYLOV: Picard iterate / total, KRYLOVgamma_lin, initial norm =      27    127 0.12500E-01 0.49701E-11
(PID.TID 0000.0001)  S/R SEAICE_KRYLOV: Picard iterate / total =     27 /    127, Nb. of FGMRES iterations =      1
(PID.TID 0000.0001)  S/R SEAICE_KRYLOV: Picard iterate / total, KRYLOVgamma_lin, initial norm =      28    128 0.12500E-01 0.24851E-11
(PID.TID 0000.0001)  S/R SEAICE_KRYLOV: Picard iterate / total =     28 /    128, Nb. of FGMRES iterations =      1
(PID.TID 0000.0001)  S/R SEAICE_KRYLOV: Picard iterate / total, KRYLOVgamma_lin, initial norm =      29    129 0.12500E-01 0.12425E-11
(PID.TID 0000.0001)  S/R SEAICE_KRYLOV: Picard iterate / total =     29 /    129, Nb. of FGMRES iterations =      1
(PID.TID 0000.0001)  S/R SEAICE_KRYLOV: Picard iterate / total, KRYLOVgamma_lin, initial norm =      30    130 0.12500E-01 0.62127E-12
(PID.TID 0000.0001)  S/R SEAICE_KRYLOV: Picard iterate / total =     30 /    130, Nb. of FGMRES iterations =      1
(PID.TID 0000.0001)  S/R SEAICE_KRYLOV: Picard iterate / total, KRYLOVgamma_lin, initial norm =      31    131 0.12500E-01 0.31063E-12
(PID.TID 0000.0001)  S/R SEAICE_KRYLOV: Picard iterate / total =     31 /    131, Nb. of FGMRES iterations =      1
(PID.TID 0000.0001)  S/R SEAICE_KRYLOV: Picard iterate / total, KRYLOVgamma_lin, initial norm =      32    132 0.12500E-01 0.15532E-12
(PID.TID 0000.0001)  S/R SEAICE_KRYLOV: Picard iterate / total =     32 /    132, Nb. of FGMRES iterations =      1
(PID.TID 0000.0001)  S/R SEAICE_KRYLOV: Picard iterate / total, KRYLOVgamma_lin, final   norm =      33    133 0.12500E-01 0.77659E-13
(PID.TID 0000.0001)  // =======================================================
(PID.TID 0000.0001)  // Begin KRYLOV statistics
(PID.TID 0000.0001)  // =======================================================
(PID.TID 0000.0001)  %KRYLOV_MON: time step              =          2
(PID.TID 0000.0001)  %KRYLOV_MON: Nb. of time steps      =          1
(PID.TID 0000.0001)  %KRYLOV_MON: Nb. of Picard steps    =         33
(PID.TID 0000.0001)  %KRYLOV_MON: Nb. of Krylov steps    =         32
(PID.TID 0000.0001)  %KRYLOV_MON: Nb. of Picard failures =          0
(PID.TID 0000.0001)  %KRYLOV_MON: Nb. of Krylov failures =          0
(PID.TID 0000.0001)  // =======================================================
(PID.TID 0000.0001)  // End KRYLOV statistics
(PID.TID 0000.0001)  // =======================================================
(PID.TID 0000.0001)  S/R SEAICE_KRYLOV: Total number FGMRES iterations =     32 in timestep          2
(PID.TID 0000.0001) // =======================================================
(PID.TID 0000.0001) // Begin MONITOR dynamic field statistics
(PID.TID 0000.0001) // =======================================================
(PID.TID 0000.0001) %MON time_tsnumber                =                     2
(PID.TID 0000.0001) %MON time_secondsf                =   5.0000000000000E+00
(PID.TID 0000.0001) %MON dynstat_eta_max              =   0.0000000000000E+00
(PID.TID 0000.0001) %MON dynstat_eta_min              =   0.0000000000000E+00
(PID.TID 0000.0001) %MON dynstat_eta_mean             =   0.0000000000000E+00
(PID.TID 0000.0001) %MON dynstat_eta_sd               =   0.0000000000000E+00
(PID.TID 0000.0001) %MON dynstat_eta_del2             =   0.0000000000000E+00
(PID.TID 0000.0001) %MON dynstat_uvel_max             =   9.8437500000000E-03
(PID.TID 0000.0001) %MON dynstat_uvel_min             =  -9.8437500000000E-03
(PID.TID 0000.0001) %MON dynstat_uvel_mean            =   0.0000000000000E+00
(PID.TID 0000.0001) %MON dynstat_uvel_sd              =   5.7727978755972E-03
(PID.TID 0000.0001) %MON dynstat_uvel_del2            =   1.0089048364799E-20
(PID.TID 0000.0001) %MON dynstat_vvel_max             =   9.8437500000000E-03
(PID.TID 0000.0001) %MON dynstat_vvel_min             =  -9.8437500000000E-03
(PID.TID 0000.0001) %MON dynstat_vvel_mean            =   0.0000000000000E+00
(PID.TID 0000.0001) %MON dynstat_vvel_sd              =   5.7727978755972E-03
(PID.TID 0000.0001) %MON dynstat_vvel_del2            =   1.0089048364799E-20
(PID.TID 0000.0001) %MON dynstat_wvel_max             =   1.1914062500000E-05
(PID.TID 0000.0001) %MON dynstat_wvel_min             =  -1.1914062500000E-05
(PID.TID 0000.0001) %MON dynstat_wvel_mean            =   3.4694469519536E-25
(PID.TID 0000.0001) %MON dynstat_wvel_sd              =   1.7200872247780E-06
(PID.TID 0000.0001) %MON dynstat_wvel_del2            =   2.8187489626940E-08
(PID.TID 0000.0001) %MON dynstat_theta_max            =  -1.6200000000000E+00
(PID.TID 0000.0001) %MON dynstat_theta_min            =  -1.6200000000000E+00
(PID.TID 0000.0001) %MON dynstat_theta_mean           =  -1.6200000000000E+00
(PID.TID 0000.0001) %MON dynstat_theta_sd             =   0.0000000000000E+00
(PID.TID 0000.0001) %MON dynstat_theta_del2           =   0.0000000000000E+00
(PID.TID 0000.0001) %MON dynstat_salt_max             =   3.0000000000000E+01
(PID.TID 0000.0001) %MON dynstat_salt_min             =   3.0000000000000E+01
(PID.TID 0000.0001) %MON dynstat_salt_mean            =   3.0000000000000E+01
(PID.TID 0000.0001) %MON dynstat_salt_sd              =   0.0000000000000E+00
(PID.TID 0000.0001) %MON dynstat_salt_del2            =   0.0000000000000E+00
(PID.TID 0000.0001) %MON trAdv_CFL_u_max              =   3.0761718750000E-06
(PID.TID 0000.0001) %MON trAdv_CFL_v_max              =   3.0761718750000E-06
(PID.TID 0000.0001) %MON trAdv_CFL_w_max              =   2.9785156250000E-06
(PID.TID 0000.0001) %MON advcfl_uvel_max              =   3.0761718750000E-06
(PID.TID 0000.0001) %MON advcfl_vvel_max              =   3.0761718750000E-06
(PID.TID 0000.0001) %MON advcfl_wvel_max              =   5.9570312500000E-06
(PID.TID 0000.0001) %MON advcfl_W_hf_max              =   0.0000000000000E+00
(PID.TID 0000.0001) %MON pe_b_mean                    =   0.0000000000000E+00
(PID.TID 0000.0001) %MON ke_max                       =   9.0844726562500E-05
(PID.TID 0000.0001) %MON ke_mean                      =   3.2804489135742E-05
(PID.TID 0000.0001) %MON ke_vol                       =   2.6214400000000E+12
(PID.TID 0000.0001) %MON vort_r_min                   =  -7.8125000000000E-08
(PID.TID 0000.0001) %MON vort_r_max                   =   1.2304687500000E-06
(PID.TID 0000.0001) %MON vort_a_mean                  =   1.4856000000000E-04
(PID.TID 0000.0001) %MON vort_a_sd                    =   1.5312918562496E-06
(PID.TID 0000.0001) %MON vort_p_mean                  =   1.5552375000000E-04
(PID.TID 0000.0001) %MON vort_p_sd                    =   5.5921473110222E-05
(PID.TID 0000.0001) %MON surfExpan_theta_mean         =   0.0000000000000E+00
(PID.TID 0000.0001) %MON surfExpan_salt_mean          =   1.3877787807814E-23
(PID.TID 0000.0001) // =======================================================
(PID.TID 0000.0001) // End MONITOR dynamic field statistics
(PID.TID 0000.0001) // =======================================================
(PID.TID 0000.0001) // =======================================================
(PID.TID 0000.0001) // Begin MONITOR SEAICE statistics
(PID.TID 0000.0001) // =======================================================
(PID.TID 0000.0001) %MON seaice_tsnumber              =                     2
(PID.TID 0000.0001) %MON seaice_time_sec              =   5.0000000000000E+00
(PID.TID 0000.0001) %MON seaice_uice_max              =   3.5028826258736E-03
(PID.TID 0000.0001) %MON seaice_uice_min              =  -3.5870811085623E-03
(PID.TID 0000.0001) %MON seaice_uice_mean             =  -8.9078162107924E-08
(PID.TID 0000.0001) %MON seaice_uice_sd               =   1.5071903862679E-03
(PID.TID 0000.0001) %MON seaice_uice_del2             =   3.5374928194490E-07
(PID.TID 0000.0001) %MON seaice_vice_max              =   3.4170747231668E-03
(PID.TID 0000.0001) %MON seaice_vice_min              =  -3.4632335845186E-03
(PID.TID 0000.0001) %MON seaice_vice_mean             =   3.8335259653640E-07
(PID.TID 0000.0001) %MON seaice_vice_sd               =   1.4997362896519E-03
(PID.TID 0000.0001) %MON seaice_vice_del2             =   3.5161112363617E-07
(PID.TID 0000.0001) %MON seaice_area_max              =   1.0000000000000E+00
(PID.TID 0000.0001) %MON seaice_area_min              =   9.9999977126199E-01
(PID.TID 0000.0001) %MON seaice_area_mean             =   9.9999998716397E-01
(PID.TID 0000.0001) %MON seaice_area_sd               =   3.1381343166174E-08
(PID.TID 0000.0001) %MON seaice_area_del2             =   4.0939394120615E-10
(PID.TID 0000.0001) %MON seaice_heff_max              =   3.0999866972138E-01
(PID.TID 0000.0001) %MON seaice_heff_min              =   2.9006056257448E-01
(PID.TID 0000.0001) %MON seaice_heff_mean             =   3.0067126525963E-01
(PID.TID 0000.0001) %MON seaice_heff_sd               =   5.0069224988738E-03
(PID.TID 0000.0001) %MON seaice_heff_del2             =   1.2853747629622E-05
(PID.TID 0000.0001) %MON seaice_hsnow_max             =   0.0000000000000E+00
(PID.TID 0000.0001) %MON seaice_hsnow_min             =   0.0000000000000E+00
(PID.TID 0000.0001) %MON seaice_hsnow_mean            =   0.0000000000000E+00
(PID.TID 0000.0001) %MON seaice_hsnow_sd              =   0.0000000000000E+00
(PID.TID 0000.0001) %MON seaice_hsnow_del2            =   0.0000000000000E+00
(PID.TID 0000.0001) // =======================================================
(PID.TID 0000.0001) // End MONITOR SEAICE statistics
(PID.TID 0000.0001) // =======================================================
 Computing Diagnostic #    163  SIuice       Counter:       1   Parms: UU      M1      
           Vector  Mate for  SIuice       Diagnostic #    164  SIvice   exists 
 Computing Diagnostic #    164  SIvice       Counter:       1   Parms: VV      M1      
           Vector  Mate for  SIvice       Diagnostic #    163  SIuice   exists 
 Computing Diagnostic #    149  SIheff       Counter:       1   Parms: SM      M1      
 Computing Diagnostic #    146  SIarea       Counter:       1   Parms: SM      M1      
 Computing Diagnostic #    228  SIshear      Counter:       1   Parms: SM      M1      
 Computing Diagnostic #    233  SIcohes      Counter:       1   Parms: SM      M1      
 Computing Diagnostic #    221  SIsig1       Counter:       1   Parms: SM      M1      
 Computing Diagnostic #    222  SIsig2       Counter:       1   Parms: SM      M1      
 Computing Diagnostic #    231  SIdamage     Counter:       1   Parms: SM      M1      
 Computing Diagnostic #    165  SItaux       Counter:       1   Parms: UU      U1      
           Vector  Mate for  SItaux       Diagnostic #    166  SItauy   exists 
 Computing Diagnostic #    166  SItauy       Counter:       1   Parms: VV      U1      
           Vector  Mate for  SItauy       Diagnostic #    165  SItaux   exists 
 Computing Diagnostic #    133  EXFuwind     Counter:       1   Parms: UM      U1      
 Computing Diagnostic #    134  EXFvwind     Counter:       1   Parms: VM      U1      
(PID.TID 0000.0001)  S/R SEAICE_KRYLOV: Picard iterate / total, KRYLOVgamma_lin, initial norm =       1    201 0.10000E+00 0.11337E+00
(PID.TID 0000.0001)  S/R SEAICE_KRYLOV: Picard iterate / total =      1 /    201, Nb. of FGMRES iterations =      1
(PID.TID 0000.0001)  S/R SEAICE_KRYLOV: Picard iterate / total, KRYLOVgamma_lin, initial norm =       2    202 0.50000E-01 0.16320E-03
(PID.TID 0000.0001)  S/R SEAICE_KRYLOV: Picard iterate / total =      2 /    202, Nb. of FGMRES iterations =      1
(PID.TID 0000.0001)  S/R SEAICE_KRYLOV: Picard iterate / total, KRYLOVgamma_lin, initial norm =       3    203 0.50000E-01 0.62838E-04
(PID.TID 0000.0001)  S/R SEAICE_KRYLOV: Picard iterate / total =      3 /    203, Nb. of FGMRES iterations =      1
(PID.TID 0000.0001)  S/R SEAICE_KRYLOV: Picard iterate / total, KRYLOVgamma_lin, initial norm =       4    204 0.33333E-01 0.33414E-04
(PID.TID 0000.0001)  S/R SEAICE_KRYLOV: Picard iterate / total =      4 /    204, Nb. of FGMRES iterations =      1
(PID.TID 0000.0001)  S/R SEAICE_KRYLOV: Picard iterate / total, KRYLOVgamma_lin, initial norm =       5    205 0.33333E-01 0.16445E-04
(PID.TID 0000.0001)  S/R SEAICE_KRYLOV: Picard iterate / total =      5 /    205, Nb. of FGMRES iterations =      1
(PID.TID 0000.0001)  S/R SEAICE_KRYLOV: Picard iterate / total, KRYLOVgamma_lin, initial norm =       6    206 0.33333E-01 0.82557E-05
(PID.TID 0000.0001)  S/R SEAICE_KRYLOV: Picard iterate / total =      6 /    206, Nb. of FGMRES iterations =      1
(PID.TID 0000.0001)  S/R SEAICE_KRYLOV: Picard iterate / total, KRYLOVgamma_lin, initial norm =       7    207 0.33333E-01 0.41236E-05
(PID.TID 0000.0001)  S/R SEAICE_KRYLOV: Picard iterate / total =      7 /    207, Nb. of FGMRES iterations =      1
(PID.TID 0000.0001)  S/R SEAICE_KRYLOV: Picard iterate / total, KRYLOVgamma_lin, initial norm =       8    208 0.25000E-01 0.20624E-05
(PID.TID 0000.0001)  S/R SEAICE_KRYLOV: Picard iterate / total =      8 /    208, Nb. of FGMRES iterations =      1
(PID.TID 0000.0001)  S/R SEAICE_KRYLOV: Picard iterate / total, KRYLOVgamma_lin, initial norm =       9    209 0.20000E-01 0.10311E-05
(PID.TID 0000.0001)  S/R SEAICE_KRYLOV: Picard iterate / total =      9 /    209, Nb. of FGMRES iterations =      1
(PID.TID 0000.0001)  S/R SEAICE_KRYLOV: Picard iterate / total, KRYLOVgamma_lin, initial norm =      10    210 0.12500E-01 0.51556E-06
(PID.TID 0000.0001)  S/R SEAICE_KRYLOV: Picard iterate / total =     10 /    210, Nb. of FGMRES iterations =      1
(PID.TID 0000.0001)  S/R SEAICE_KRYLOV: Picard iterate / total, KRYLOVgamma_lin, initial norm =      11    211 0.12500E-01 0.25778E-06
(PID.TID 0000.0001)  S/R SEAICE_KRYLOV: Picard iterate / total =     11 /    211, Nb. of FGMRES iterations =      1
(PID.TID 0000.0001)  S/R SEAICE_KRYLOV: Picard iterate / total, KRYLOVgamma_lin, initial norm =      12    212 0.12500E-01 0.12889E-06
(PID.TID 0000.0001)  S/R SEAICE_KRYLOV: Picard iterate / total =     12 /    212, Nb. of FGMRES iterations =      1
(PID.TID 0000.0001)  S/R SEAICE_KRYLOV: Picard iterate / total, KRYLOVgamma_lin, initial norm =      13    213 0.12500E-01 0.64445E-07
(PID.TID 0000.0001)  S/R SEAICE_KRYLOV: Picard iterate / total =     13 /    213, Nb. of FGMRES iterations =      1
(PID.TID 0000.0001)  S/R SEAICE_KRYLOV: Picard iterate / total, KRYLOVgamma_lin, initial norm =      14    214 0.12500E-01 0.32223E-07
(PID.TID 0000.0001)  S/R SEAICE_KRYLOV: Picard iterate / total =     14 /    214, Nb. of FGMRES iterations =      1
(PID.TID 0000.0001)  S/R SEAICE_KRYLOV: Picard iterate / total, KRYLOVgamma_lin, initial norm =      15    215 0.12500E-01 0.16111E-07
(PID.TID 0000.0001)  S/R SEAICE_KRYLOV: Picard iterate / total =     15 /    215, Nb. of FGMRES iterations =      1
(PID.TID 0000.0001)  S/R SEAICE_KRYLOV: Picard iterate / total, KRYLOVgamma_lin, initial norm =      16    216 0.12500E-01 0.80557E-08
(PID.TID 0000.0001)  S/R SEAICE_KRYLOV: Picard iterate / total =     16 /    216, Nb. of FGMRES iterations =      1
(PID.TID 0000.0001)  S/R SEAICE_KRYLOV: Picard iterate / total, KRYLOVgamma_lin, initial norm =      17    217 0.12500E-01 0.40278E-08
(PID.TID 0000.0001)  S/R SEAICE_KRYLOV: Picard iterate / total =     17 /    217, Nb. of FGMRES iterations =      1
(PID.TID 0000.0001)  S/R SEAICE_KRYLOV: Picard iterate / total, KRYLOVgamma_lin, initial norm =      18    218 0.12500E-01 0.20139E-08
(PID.TID 0000.0001)  S/R SEAICE_KRYLOV: Picard iterate / total =     18 /    218, Nb. of FGMRES iterations =      1
(PID.TID 0000.0001)  S/R SEAICE_KRYLOV: Picard iterate / total, KRYLOVgamma_lin, initial norm =      19    219 0.12500E-01 0.10070E-08
(PID.TID 0000.0001)  S/R SEAICE_KRYLOV: Picard iterate / total =     19 /    219, Nb. of FGMRES iterations =      1
(PID.TID 0000.0001)  S/R SEAICE_KRYLOV: Picard iterate / total, KRYLOVgamma_lin, initial norm =      20    220 0.12500E-01 0.50348E-09
(PID.TID 0000.0001)  S/R SEAICE_KRYLOV: Picard iterate / total =     20 /    220, Nb. of FGMRES iterations =      1
(PID.TID 0000.0001)  S/R SEAICE_KRYLOV: Picard iterate / total, KRYLOVgamma_lin, initial norm =      21    221 0.12500E-01 0.25174E-09
(PID.TID 0000.0001)  S/R SEAICE_KRYLOV: Picard iterate / total =     21 /    221, Nb. of FGMRES iterations =      1
(PID.TID 0000.0001)  S/R SEAICE_KRYLOV: Picard iterate / total, KRYLOVgamma_lin, initial norm =      22    222 0.12500E-01 0.12587E-09
(PID.TID 0000.0001)  S/R SEAICE_KRYLOV: Picard iterate / total =     22 /    222, Nb. of FGMRES iterations =      1
(PID.TID 0000.0001)  S/R SEAICE_KRYLOV: Picard iterate / total, KRYLOVgamma_lin, initial norm =      23    223 0.12500E-01 0.62935E-10
(PID.TID 0000.0001)  S/R SEAICE_KRYLOV: Picard iterate / total =     23 /    223, Nb. of FGMRES iterations =      1
(PID.TID 0000.0001)  S/R SEAICE_KRYLOV: Picard iterate / total, KRYLOVgamma_lin, initial norm =      24    224 0.12500E-01 0.31467E-10
(PID.TID 0000.0001)  S/R SEAICE_KRYLOV: Picard iterate / total =     24 /    224, Nb. of FGMRES iterations =      1
(PID.TID 0000.0001)  S/R SEAICE_KRYLOV: Picard iterate / total, KRYLOVgamma_lin, initial norm =      25    225 0.12500E-01 0.15734E-10
(PID.TID 0000.0001)  S/R SEAICE_KRYLOV: Picard iterate / total =     25 /    225, Nb. of FGMRES iterations =      1
(PID.TID 0000.0001)  S/R SEAICE_KRYLOV: Picard iterate / total, KRYLOVgamma_lin, initial norm =      26    226 0.12500E-01 0.78668E-11
(PID.TID 0000.0001)  S/R SEAICE_KRYLOV: Picard iterate / total =     26 /    226, Nb. of FGMRES iterations =      1
(PID.TID 0000.0001)  S/R SEAICE_KRYLOV: Picard iterate / total, KRYLOVgamma_lin, initial norm =      27    227 0.12500E-01 0.39334E-11
(PID.TID 0000.0001)  S/R SEAICE_KRYLOV: Picard iterate / total =     27 /    227, Nb. of FGMRES iterations =      1
(PID.TID 0000.0001)  S/R SEAICE_KRYLOV: Picard iterate / total, KRYLOVgamma_lin, initial norm =      28    228 0.12500E-01 0.19667E-11
(PID.TID 0000.0001)  S/R SEAICE_KRYLOV: Picard iterate / total =     28 /    228, Nb. of FGMRES iterations =      1
(PID.TID 0000.0001)  S/R SEAICE_KRYLOV: Picard iterate / total, KRYLOVgamma_lin, initial norm =      29    229 0.12500E-01 0.98336E-12
(PID.TID 0000.0001)  S/R SEAICE_KRYLOV: Picard iterate / total =     29 /    229, Nb. of FGMRES iterations =      1
(PID.TID 0000.0001)  S/R SEAICE_KRYLOV: Picard iterate / total, KRYLOVgamma_lin, initial norm =      30    230 0.12500E-01 0.49168E-12
(PID.TID 0000.0001)  S/R SEAICE_KRYLOV: Picard iterate / total =     30 /    230, Nb. of FGMRES iterations =      1
(PID.TID 0000.0001)  S/R SEAICE_KRYLOV: Picard iterate / total, KRYLOVgamma_lin, initial norm =      31    231 0.12500E-01 0.24584E-12
(PID.TID 0000.0001)  S/R SEAICE_KRYLOV: Picard iterate / total =     31 /    231, Nb. of FGMRES iterations =      1
(PID.TID 0000.0001)  S/R SEAICE_KRYLOV: Picard iterate / total, KRYLOVgamma_lin, initial norm =      32    232 0.12500E-01 0.12292E-12
(PID.TID 0000.0001)  S/R SEAICE_KRYLOV: Picard iterate / total =     32 /    232, Nb. of FGMRES iterations =      1
(PID.TID 0000.0001)  S/R SEAICE_KRYLOV: Picard iterate / total, KRYLOVgamma_lin, final   norm =      33    233 0.12500E-01 0.61460E-13
(PID.TID 0000.0001)  // =======================================================
(PID.TID 0000.0001)  // Begin KRYLOV statistics
(PID.TID 0000.0001)  // =======================================================
(PID.TID 0000.0001)  %KRYLOV_MON: time step              =          3
(PID.TID 0000.0001)  %KRYLOV_MON: Nb. of time steps      =          1
(PID.TID 0000.0001)  %KRYLOV_MON: Nb. of Picard steps    =         33
(PID.TID 0000.0001)  %KRYLOV_MON: Nb. of Krylov steps    =         32
(PID.TID 0000.0001)  %KRYLOV_MON: Nb. of Picard failures =          0
(PID.TID 0000.0001)  %KRYLOV_MON: Nb. of Krylov failures =          0
(PID.TID 0000.0001)  // =======================================================
(PID.TID 0000.0001)  // End KRYLOV statistics
(PID.TID 0000.0001)  // =======================================================
(PID.TID 0000.0001)  S/R SEAICE_KRYLOV: Total number FGMRES iterations =     32 in timestep          3
(PID.TID 0000.0001) // =======================================================
(PID.TID 0000.0001) // Begin MONITOR dynamic field statistics
(PID.TID 0000.0001) // =======================================================
(PID.TID 0000.0001) %MON time_tsnumber                =                     3
(PID.TID 0000.0001) %MON time_secondsf                =   7.5000000000000E+00
(PID.TID 0000.0001) %MON dynstat_eta_max              =   0.0000000000000E+00
(PID.TID 0000.0001) %MON dynstat_eta_min              =   0.0000000000000E+00
(PID.TID 0000.0001) %MON dynstat_eta_mean             =   0.0000000000000E+00
(PID.TID 0000.0001) %MON dynstat_eta_sd               =   0.0000000000000E+00
(PID.TID 0000.0001) %MON dynstat_eta_del2             =   0.0000000000000E+00
(PID.TID 0000.0001) %MON dynstat_uvel_max             =   9.8437500000000E-03
(PID.TID 0000.0001) %MON dynstat_uvel_min             =  -9.8437500000000E-03
(PID.TID 0000.0001) %MON dynstat_uvel_mean            =   0.0000000000000E+00
(PID.TID 0000.0001) %MON dynstat_uvel_sd              =   5.7727978755972E-03
(PID.TID 0000.0001) %MON dynstat_uvel_del2            =   1.0089048364799E-20
(PID.TID 0000.0001) %MON dynstat_vvel_max             =   9.8437500000000E-03
(PID.TID 0000.0001) %MON dynstat_vvel_min             =  -9.8437500000000E-03
(PID.TID 0000.0001) %MON dynstat_vvel_mean            =   0.0000000000000E+00
(PID.TID 0000.0001) %MON dynstat_vvel_sd              =   5.7727978755972E-03
(PID.TID 0000.0001) %MON dynstat_vvel_del2            =   1.0089048364799E-20
(PID.TID 0000.0001) %MON dynstat_wvel_max             =   1.1914062500000E-05
(PID.TID 0000.0001) %MON dynstat_wvel_min             =  -1.1914062500000E-05
(PID.TID 0000.0001) %MON dynstat_wvel_mean            =   3.4694469519536E-25
(PID.TID 0000.0001) %MON dynstat_wvel_sd              =   1.7200872247780E-06
(PID.TID 0000.0001) %MON dynstat_wvel_del2            =   2.8187489626940E-08
(PID.TID 0000.0001) %MON dynstat_theta_max            =  -1.6200000000000E+00
(PID.TID 0000.0001) %MON dynstat_theta_min            =  -1.6200000000000E+00
(PID.TID 0000.0001) %MON dynstat_theta_mean           =  -1.6200000000000E+00
(PID.TID 0000.0001) %MON dynstat_theta_sd             =   0.0000000000000E+00
(PID.TID 0000.0001) %MON dynstat_theta_del2           =   0.0000000000000E+00
(PID.TID 0000.0001) %MON dynstat_salt_max             =   3.0000000000000E+01
(PID.TID 0000.0001) %MON dynstat_salt_min             =   3.0000000000000E+01
(PID.TID 0000.0001) %MON dynstat_salt_mean            =   3.0000000000000E+01
(PID.TID 0000.0001) %MON dynstat_salt_sd              =   0.0000000000000E+00
(PID.TID 0000.0001) %MON dynstat_salt_del2            =   0.0000000000000E+00
(PID.TID 0000.0001) %MON trAdv_CFL_u_max              =   3.0761718750000E-06
(PID.TID 0000.0001) %MON trAdv_CFL_v_max              =   3.0761718750000E-06
(PID.TID 0000.0001) %MON trAdv_CFL_w_max              =   2.9785156250000E-06
(PID.TID 0000.0001) %MON advcfl_uvel_max              =   3.0761718750000E-06
(PID.TID 0000.0001) %MON advcfl_vvel_max              =   3.0761718750000E-06
(PID.TID 0000.0001) %MON advcfl_wvel_max              =   5.9570312500000E-06
(PID.TID 0000.0001) %MON advcfl_W_hf_max              =   0.0000000000000E+00
(PID.TID 0000.0001) %MON pe_b_mean                    =   0.0000000000000E+00
(PID.TID 0000.0001) %MON ke_max                       =   9.0844726562500E-05
(PID.TID 0000.0001) %MON ke_mean                      =   3.2804489135742E-05
(PID.TID 0000.0001) %MON ke_vol                       =   2.6214400000000E+12
(PID.TID 0000.0001) %MON vort_r_min                   =  -7.8125000000000E-08
(PID.TID 0000.0001) %MON vort_r_max                   =   1.2304687500000E-06
(PID.TID 0000.0001) %MON vort_a_mean                  =   1.4856000000000E-04
(PID.TID 0000.0001) %MON vort_a_sd                    =   1.5312918562496E-06
(PID.TID 0000.0001) %MON vort_p_mean                  =   1.5552375000000E-04
(PID.TID 0000.0001) %MON vort_p_sd                    =   5.5921473110222E-05
(PID.TID 0000.0001) %MON surfExpan_theta_mean         =   0.0000000000000E+00
(PID.TID 0000.0001) %MON surfExpan_salt_mean          =   1.3877787807814E-23
(PID.TID 0000.0001) // =======================================================
(PID.TID 0000.0001) // End MONITOR dynamic field statistics
(PID.TID 0000.0001) // =======================================================
(PID.TID 0000.0001) // =======================================================
(PID.TID 0000.0001) // Begin MONITOR SEAICE statistics
(PID.TID 0000.0001) // =======================================================
(PID.TID 0000.0001) %MON seaice_tsnumber              =                     3
(PID.TID 0000.0001) %MON seaice_time_sec              =   7.5000000000000E+00
(PID.TID 0000.0001) %MON seaice_uice_max              =   5.2451215470894E-03
(PID.TID 0000.0001) %MON seaice_uice_min              =  -5.3690004746120E-03
(PID.TID 0000.0001) %MON seaice_uice_mean             =  -1.2676285770432E-07
(PID.TID 0000.0001) %MON seaice_uice_sd               =   2.2566045632516E-03
(PID.TID 0000.0001) %MON seaice_uice_del2             =   5.7649316267326E-07
(PID.TID 0000.0001) %MON seaice_vice_max              =   5.1172209952317E-03
(PID.TID 0000.0001) %MON seaice_vice_min              =  -5.1855892952392E-03
(PID.TID 0000.0001) %MON seaice_vice_mean             =   5.6309961759695E-07
(PID.TID 0000.0001) %MON seaice_vice_sd               =   2.2454650418873E-03
(PID.TID 0000.0001) %MON seaice_vice_del2             =   5.7450560980987E-07
(PID.TID 0000.0001) %MON seaice_area_max              =   1.0000000000000E+00
(PID.TID 0000.0001) %MON seaice_area_min              =   9.9999955916076E-01
(PID.TID 0000.0001) %MON seaice_area_mean             =   9.9999997441775E-01
(PID.TID 0000.0001) %MON seaice_area_sd               =   6.0619294352884E-08
(PID.TID 0000.0001) %MON seaice_area_del2             =   7.2469319319458E-10
(PID.TID 0000.0001) %MON seaice_heff_max              =   3.0999866635412E-01
(PID.TID 0000.0001) %MON seaice_heff_min              =   2.9006055904905E-01
(PID.TID 0000.0001) %MON seaice_heff_mean             =   3.0067126525963E-01
(PID.TID 0000.0001) %MON seaice_heff_sd               =   5.0069226122699E-03
(PID.TID 0000.0001) %MON seaice_heff_del2             =   1.2853747586879E-05
(PID.TID 0000.0001) %MON seaice_hsnow_max             =   0.0000000000000E+00
(PID.TID 0000.0001) %MON seaice_hsnow_min             =   0.0000000000000E+00
(PID.TID 0000.0001) %MON seaice_hsnow_mean            =   0.0000000000000E+00
(PID.TID 0000.0001) %MON seaice_hsnow_sd              =   0.0000000000000E+00
(PID.TID 0000.0001) %MON seaice_hsnow_del2            =   0.0000000000000E+00
(PID.TID 0000.0001) // =======================================================
(PID.TID 0000.0001) // End MONITOR SEAICE statistics
(PID.TID 0000.0001) // =======================================================
 Computing Diagnostic #    163  SIuice       Counter:       1   Parms: UU      M1      
           Vector  Mate for  SIuice       Diagnostic #    164  SIvice   exists 
 Computing Diagnostic #    164  SIvice       Counter:       1   Parms: VV      M1      
           Vector  Mate for  SIvice       Diagnostic #    163  SIuice   exists 
 Computing Diagnostic #    149  SIheff       Counter:       1   Parms: SM      M1      
 Computing Diagnostic #    146  SIarea       Counter:       1   Parms: SM      M1      
 Computing Diagnostic #    228  SIshear      Counter:       1   Parms: SM      M1      
 Computing Diagnostic #    233  SIcohes      Counter:       1   Parms: SM      M1      
 Computing Diagnostic #    221  SIsig1       Counter:       1   Parms: SM      M1      
 Computing Diagnostic #    222  SIsig2       Counter:       1   Parms: SM      M1      
 Computing Diagnostic #    231  SIdamage     Counter:       1   Parms: SM      M1      
 Computing Diagnostic #    165  SItaux       Counter:       1   Parms: UU      U1      
           Vector  Mate for  SItaux       Diagnostic #    166  SItauy   exists 
 Computing Diagnostic #    166  SItauy       Counter:       1   Parms: VV      U1      
           Vector  Mate for  SItauy       Diagnostic #    165  SItaux   exists 
 Computing Diagnostic #    133  EXFuwind     Counter:       1   Parms: UM      U1      
 Computing Diagnostic #    134  EXFvwind     Counter:       1   Parms: VM      U1      
(PID.TID 0000.0001)  S/R SEAICE_KRYLOV: Picard iterate / total, KRYLOVgamma_lin, initial norm =       1    301 0.10000E+00 0.11290E+00
(PID.TID 0000.0001)  S/R SEAICE_KRYLOV: Picard iterate / total =      1 /    301, Nb. of FGMRES iterations =      1
(PID.TID 0000.0001)  S/R SEAICE_KRYLOV: Picard iterate / total, KRYLOVgamma_lin, initial norm =       2    302 0.50000E-01 0.22454E-03
(PID.TID 0000.0001)  S/R SEAICE_KRYLOV: Picard iterate / total =      2 /    302, Nb. of FGMRES iterations =      1
(PID.TID 0000.0001)  S/R SEAICE_KRYLOV: Picard iterate / total, KRYLOVgamma_lin, initial norm =       3    303 0.50000E-01 0.40752E-04
(PID.TID 0000.0001)  S/R SEAICE_KRYLOV: Picard iterate / total =      3 /    303, Nb. of FGMRES iterations =      1
(PID.TID 0000.0001)  S/R SEAICE_KRYLOV: Picard iterate / total, KRYLOVgamma_lin, initial norm =       4    304 0.33333E-01 0.25230E-04
(PID.TID 0000.0001)  S/R SEAICE_KRYLOV: Picard iterate / total =      4 /    304, Nb. of FGMRES iterations =      1
(PID.TID 0000.0001)  S/R SEAICE_KRYLOV: Picard iterate / total, KRYLOVgamma_lin, initial norm =       5    305 0.33333E-01 0.12194E-04
(PID.TID 0000.0001)  S/R SEAICE_KRYLOV: Picard iterate / total =      5 /    305, Nb. of FGMRES iterations =      1
(PID.TID 0000.0001)  S/R SEAICE_KRYLOV: Picard iterate / total, KRYLOVgamma_lin, initial norm =       6    306 0.33333E-01 0.61314E-05
(PID.TID 0000.0001)  S/R SEAICE_KRYLOV: Picard iterate / total =      6 /    306, Nb. of FGMRES iterations =      1
(PID.TID 0000.0001)  S/R SEAICE_KRYLOV: Picard iterate / total, KRYLOVgamma_lin, initial norm =       7    307 0.33333E-01 0.30629E-05
(PID.TID 0000.0001)  S/R SEAICE_KRYLOV: Picard iterate / total =      7 /    307, Nb. of FGMRES iterations =      1
(PID.TID 0000.0001)  S/R SEAICE_KRYLOV: Picard iterate / total, KRYLOVgamma_lin, initial norm =       8    308 0.25000E-01 0.15317E-05
(PID.TID 0000.0001)  S/R SEAICE_KRYLOV: Picard iterate / total =      8 /    308, Nb. of FGMRES iterations =      1
(PID.TID 0000.0001)  S/R SEAICE_KRYLOV: Picard iterate / total, KRYLOVgamma_lin, initial norm =       9    309 0.20000E-01 0.76581E-06
(PID.TID 0000.0001)  S/R SEAICE_KRYLOV: Picard iterate / total =      9 /    309, Nb. of FGMRES iterations =      1
(PID.TID 0000.0001)  S/R SEAICE_KRYLOV: Picard iterate / total, KRYLOVgamma_lin, initial norm =      10    310 0.12500E-01 0.38291E-06
(PID.TID 0000.0001)  S/R SEAICE_KRYLOV: Picard iterate / total =     10 /    310, Nb. of FGMRES iterations =      1
(PID.TID 0000.0001)  S/R SEAICE_KRYLOV: Picard iterate / total, KRYLOVgamma_lin, initial norm =      11    311 0.12500E-01 0.19145E-06
(PID.TID 0000.0001)  S/R SEAICE_KRYLOV: Picard iterate / total =     11 /    311, Nb. of FGMRES iterations =      1
(PID.TID 0000.0001)  S/R SEAICE_KRYLOV: Picard iterate / total, KRYLOVgamma_lin, initial norm =      12    312 0.12500E-01 0.95727E-07
(PID.TID 0000.0001)  S/R SEAICE_KRYLOV: Picard iterate / total =     12 /    312, Nb. of FGMRES iterations =      1
(PID.TID 0000.0001)  S/R SEAICE_KRYLOV: Picard iterate / total, KRYLOVgamma_lin, initial norm =      13    313 0.12500E-01 0.47863E-07
(PID.TID 0000.0001)  S/R SEAICE_KRYLOV: Picard iterate / total =     13 /    313, Nb. of FGMRES iterations =      1
(PID.TID 0000.0001)  S/R SEAICE_KRYLOV: Picard iterate / total, KRYLOVgamma_lin, initial norm =      14    314 0.12500E-01 0.23932E-07
(PID.TID 0000.0001)  S/R SEAICE_KRYLOV: Picard iterate / total =     14 /    314, Nb. of FGMRES iterations =      1
(PID.TID 0000.0001)  S/R SEAICE_KRYLOV: Picard iterate / total, KRYLOVgamma_lin, initial norm =      15    315 0.12500E-01 0.11966E-07
(PID.TID 0000.0001)  S/R SEAICE_KRYLOV: Picard iterate / total =     15 /    315, Nb. of FGMRES iterations =      1
(PID.TID 0000.0001)  S/R SEAICE_KRYLOV: Picard iterate / total, KRYLOVgamma_lin, initial norm =      16    316 0.12500E-01 0.59829E-08
(PID.TID 0000.0001)  S/R SEAICE_KRYLOV: Picard iterate / total =     16 /    316, Nb. of FGMRES iterations =      1
(PID.TID 0000.0001)  S/R SEAICE_KRYLOV: Picard iterate / total, KRYLOVgamma_lin, initial norm =      17    317 0.12500E-01 0.29915E-08
(PID.TID 0000.0001)  S/R SEAICE_KRYLOV: Picard iterate / total =     17 /    317, Nb. of FGMRES iterations =      1
(PID.TID 0000.0001)  S/R SEAICE_KRYLOV: Picard iterate / total, KRYLOVgamma_lin, initial norm =      18    318 0.12500E-01 0.14957E-08
(PID.TID 0000.0001)  S/R SEAICE_KRYLOV: Picard iterate / total =     18 /    318, Nb. of FGMRES iterations =      1
(PID.TID 0000.0001)  S/R SEAICE_KRYLOV: Picard iterate / total, KRYLOVgamma_lin, initial norm =      19    319 0.12500E-01 0.74787E-09
(PID.TID 0000.0001)  S/R SEAICE_KRYLOV: Picard iterate / total =     19 /    319, Nb. of FGMRES iterations =      1
(PID.TID 0000.0001)  S/R SEAICE_KRYLOV: Picard iterate / total, KRYLOVgamma_lin, initial norm =      20    320 0.12500E-01 0.37393E-09
(PID.TID 0000.0001)  S/R SEAICE_KRYLOV: Picard iterate / total =     20 /    320, Nb. of FGMRES iterations =      1
(PID.TID 0000.0001)  S/R SEAICE_KRYLOV: Picard iterate / total, KRYLOVgamma_lin, initial norm =      21    321 0.12500E-01 0.18697E-09
(PID.TID 0000.0001)  S/R SEAICE_KRYLOV: Picard iterate / total =     21 /    321, Nb. of FGMRES iterations =      1
(PID.TID 0000.0001)  S/R SEAICE_KRYLOV: Picard iterate / total, KRYLOVgamma_lin, initial norm =      22    322 0.12500E-01 0.93483E-10
(PID.TID 0000.0001)  S/R SEAICE_KRYLOV: Picard iterate / total =     22 /    322, Nb. of FGMRES iterations =      1
(PID.TID 0000.0001)  S/R SEAICE_KRYLOV: Picard iterate / total, KRYLOVgamma_lin, initial norm =      23    323 0.12500E-01 0.46742E-10
(PID.TID 0000.0001)  S/R SEAICE_KRYLOV: Picard iterate / total =     23 /    323, Nb. of FGMRES iterations =      1
(PID.TID 0000.0001)  S/R SEAICE_KRYLOV: Picard iterate / total, KRYLOVgamma_lin, initial norm =      24    324 0.12500E-01 0.23371E-10
(PID.TID 0000.0001)  S/R SEAICE_KRYLOV: Picard iterate / total =     24 /    324, Nb. of FGMRES iterations =      1
(PID.TID 0000.0001)  S/R SEAICE_KRYLOV: Picard iterate / total, KRYLOVgamma_lin, initial norm =      25    325 0.12500E-01 0.11685E-10
(PID.TID 0000.0001)  S/R SEAICE_KRYLOV: Picard iterate / total =     25 /    325, Nb. of FGMRES iterations =      1
(PID.TID 0000.0001)  S/R SEAICE_KRYLOV: Picard iterate / total, KRYLOVgamma_lin, initial norm =      26    326 0.12500E-01 0.58427E-11
(PID.TID 0000.0001)  S/R SEAICE_KRYLOV: Picard iterate / total =     26 /    326, Nb. of FGMRES iterations =      1
(PID.TID 0000.0001)  S/R SEAICE_KRYLOV: Picard iterate / total, KRYLOVgamma_lin, initial norm =      27    327 0.12500E-01 0.29214E-11
(PID.TID 0000.0001)  S/R SEAICE_KRYLOV: Picard iterate / total =     27 /    327, Nb. of FGMRES iterations =      1
(PID.TID 0000.0001)  S/R SEAICE_KRYLOV: Picard iterate / total, KRYLOVgamma_lin, initial norm =      28    328 0.12500E-01 0.14607E-11
(PID.TID 0000.0001)  S/R SEAICE_KRYLOV: Picard iterate / total =     28 /    328, Nb. of FGMRES iterations =      1
(PID.TID 0000.0001)  S/R SEAICE_KRYLOV: Picard iterate / total, KRYLOVgamma_lin, initial norm =      29    329 0.12500E-01 0.73034E-12
(PID.TID 0000.0001)  S/R SEAICE_KRYLOV: Picard iterate / total =     29 /    329, Nb. of FGMRES iterations =      1
(PID.TID 0000.0001)  S/R SEAICE_KRYLOV: Picard iterate / total, KRYLOVgamma_lin, initial norm =      30    330 0.12500E-01 0.36517E-12
(PID.TID 0000.0001)  S/R SEAICE_KRYLOV: Picard iterate / total =     30 /    330, Nb. of FGMRES iterations =      1
(PID.TID 0000.0001)  S/R SEAICE_KRYLOV: Picard iterate / total, KRYLOVgamma_lin, initial norm =      31    331 0.12500E-01 0.18259E-12
(PID.TID 0000.0001)  S/R SEAICE_KRYLOV: Picard iterate / total =     31 /    331, Nb. of FGMRES iterations =      1
(PID.TID 0000.0001)  S/R SEAICE_KRYLOV: Picard iterate / total, KRYLOVgamma_lin, final   norm =      32    332 0.12500E-01 0.91292E-13
(PID.TID 0000.0001)  // =======================================================
(PID.TID 0000.0001)  // Begin KRYLOV statistics
(PID.TID 0000.0001)  // =======================================================
(PID.TID 0000.0001)  %KRYLOV_MON: time step              =          4
(PID.TID 0000.0001)  %KRYLOV_MON: Nb. of time steps      =          1
(PID.TID 0000.0001)  %KRYLOV_MON: Nb. of Picard steps    =         32
(PID.TID 0000.0001)  %KRYLOV_MON: Nb. of Krylov steps    =         31
(PID.TID 0000.0001)  %KRYLOV_MON: Nb. of Picard failures =          0
(PID.TID 0000.0001)  %KRYLOV_MON: Nb. of Krylov failures =          0
(PID.TID 0000.0001)  // =======================================================
(PID.TID 0000.0001)  // End KRYLOV statistics
(PID.TID 0000.0001)  // =======================================================
(PID.TID 0000.0001)  S/R SEAICE_KRYLOV: Total number FGMRES iterations =     31 in timestep          4
(PID.TID 0000.0001) // =======================================================
(PID.TID 0000.0001) // Begin MONITOR dynamic field statistics
(PID.TID 0000.0001) // =======================================================
(PID.TID 0000.0001) %MON time_tsnumber                =                     4
(PID.TID 0000.0001) %MON time_secondsf                =   1.0000000000000E+01
(PID.TID 0000.0001) %MON dynstat_eta_max              =   0.0000000000000E+00
(PID.TID 0000.0001) %MON dynstat_eta_min              =   0.0000000000000E+00
(PID.TID 0000.0001) %MON dynstat_eta_mean             =   0.0000000000000E+00
(PID.TID 0000.0001) %MON dynstat_eta_sd               =   0.0000000000000E+00
(PID.TID 0000.0001) %MON dynstat_eta_del2             =   0.0000000000000E+00
(PID.TID 0000.0001) %MON dynstat_uvel_max             =   9.8437500000000E-03
(PID.TID 0000.0001) %MON dynstat_uvel_min             =  -9.8437500000000E-03
(PID.TID 0000.0001) %MON dynstat_uvel_mean            =   0.0000000000000E+00
(PID.TID 0000.0001) %MON dynstat_uvel_sd              =   5.7727978755972E-03
(PID.TID 0000.0001) %MON dynstat_uvel_del2            =   1.0089048364799E-20
(PID.TID 0000.0001) %MON dynstat_vvel_max             =   9.8437500000000E-03
(PID.TID 0000.0001) %MON dynstat_vvel_min             =  -9.8437500000000E-03
(PID.TID 0000.0001) %MON dynstat_vvel_mean            =   0.0000000000000E+00
(PID.TID 0000.0001) %MON dynstat_vvel_sd              =   5.7727978755972E-03
(PID.TID 0000.0001) %MON dynstat_vvel_del2            =   1.0089048364799E-20
(PID.TID 0000.0001) %MON dynstat_wvel_max             =   1.1914062500000E-05
(PID.TID 0000.0001) %MON dynstat_wvel_min             =  -1.1914062500000E-05
(PID.TID 0000.0001) %MON dynstat_wvel_mean            =   3.4694469519536E-25
(PID.TID 0000.0001) %MON dynstat_wvel_sd              =   1.7200872247780E-06
(PID.TID 0000.0001) %MON dynstat_wvel_del2            =   2.8187489626940E-08
(PID.TID 0000.0001) %MON dynstat_theta_max            =  -1.6200000000000E+00
(PID.TID 0000.0001) %MON dynstat_theta_min            =  -1.6200000000000E+00
(PID.TID 0000.0001) %MON dynstat_theta_mean           =  -1.6200000000000E+00
(PID.TID 0000.0001) %MON dynstat_theta_sd             =   0.0000000000000E+00
(PID.TID 0000.0001) %MON dynstat_theta_del2           =   0.0000000000000E+00
(PID.TID 0000.0001) %MON dynstat_salt_max             =   3.0000000000000E+01
(PID.TID 0000.0001) %MON dynstat_salt_min             =   3.0000000000000E+01
(PID.TID 0000.0001) %MON dynstat_salt_mean            =   3.0000000000000E+01
(PID.TID 0000.0001) %MON dynstat_salt_sd              =   0.0000000000000E+00
(PID.TID 0000.0001) %MON dynstat_salt_del2            =   0.0000000000000E+00
(PID.TID 0000.0001) %MON trAdv_CFL_u_max              =   3.0761718750000E-06
(PID.TID 0000.0001) %MON trAdv_CFL_v_max              =   3.0761718750000E-06
(PID.TID 0000.0001) %MON trAdv_CFL_w_max              =   2.9785156250000E-06
(PID.TID 0000.0001) %MON advcfl_uvel_max              =   3.0761718750000E-06
(PID.TID 0000.0001) %MON advcfl_vvel_max              =   3.0761718750000E-06
(PID.TID 0000.0001) %MON advcfl_wvel_max              =   5.9570312500000E-06
(PID.TID 0000.0001) %MON advcfl_W_hf_max              =   0.0000000000000E+00
(PID.TID 0000.0001) %MON pe_b_mean                    =   0.0000000000000E+00
(PID.TID 0000.0001) %MON ke_max                       =   9.0844726562500E-05
(PID.TID 0000.0001) %MON ke_mean                      =   3.2804489135742E-05
(PID.TID 0000.0001) %MON ke_vol                       =   2.6214400000000E+12
(PID.TID 0000.0001) %MON vort_r_min                   =  -7.8125000000000E-08
(PID.TID 0000.0001) %MON vort_r_max                   =   1.2304687500000E-06
(PID.TID 0000.0001) %MON vort_a_mean                  =   1.4856000000000E-04
(PID.TID 0000.0001) %MON vort_a_sd                    =   1.5312918562496E-06
(PID.TID 0000.0001) %MON vort_p_mean                  =   1.5552375000000E-04
(PID.TID 0000.0001) %MON vort_p_sd                    =   5.5921473110222E-05
(PID.TID 0000.0001) %MON surfExpan_theta_mean         =   0.0000000000000E+00
(PID.TID 0000.0001) %MON surfExpan_salt_mean          =   1.3877787807814E-23
(PID.TID 0000.0001) // =======================================================
(PID.TID 0000.0001) // End MONITOR dynamic field statistics
(PID.TID 0000.0001) // =======================================================
(PID.TID 0000.0001) // =======================================================
(PID.TID 0000.0001) // Begin MONITOR SEAICE statistics
(PID.TID 0000.0001) // =======================================================
(PID.TID 0000.0001) %MON seaice_tsnumber              =                     4
(PID.TID 0000.0001) %MON seaice_time_sec              =   1.0000000000000E+01
(PID.TID 0000.0001) %MON seaice_uice_max              =   6.9802437237733E-03
(PID.TID 0000.0001) %MON seaice_uice_min              =  -7.1421177550253E-03
(PID.TID 0000.0001) %MON seaice_uice_mean             =  -1.6511885818003E-07
(PID.TID 0000.0001) %MON seaice_uice_sd               =   3.0029681147617E-03
(PID.TID 0000.0001) %MON seaice_uice_del2             =   8.4314934280808E-07
(PID.TID 0000.0001) %MON seaice_vice_max              =   6.8109367820954E-03
(PID.TID 0000.0001) %MON seaice_vice_min              =  -6.9007032752121E-03
(PID.TID 0000.0001) %MON seaice_vice_mean             =   7.4321112343147E-07
(PID.TID 0000.0001) %MON seaice_vice_sd               =   2.9881789907244E-03
(PID.TID 0000.0001) %MON seaice_vice_del2             =   8.4230642626969E-07
(PID.TID 0000.0001) %MON seaice_area_max              =   1.0000000000000E+00
(PID.TID 0000.0001) %MON seaice_area_min              =   9.9999929091711E-01
(PID.TID 0000.0001) %MON seaice_area_mean             =   9.9999995750088E-01
(PID.TID 0000.0001) %MON seaice_area_sd               =   9.7684569947500E-08
(PID.TID 0000.0001) %MON seaice_area_del2             =   1.0686685899611E-09
(PID.TID 0000.0001) %MON seaice_heff_max              =   3.0999866187921E-01
(PID.TID 0000.0001) %MON seaice_heff_min              =   2.9006055437991E-01
(PID.TID 0000.0001) %MON seaice_heff_mean             =   3.0067126525963E-01
(PID.TID 0000.0001) %MON seaice_heff_sd               =   5.0069227346862E-03
(PID.TID 0000.0001) %MON seaice_heff_del2             =   1.2853747766539E-05
(PID.TID 0000.0001) %MON seaice_hsnow_max             =   0.0000000000000E+00
(PID.TID 0000.0001) %MON seaice_hsnow_min             =   0.0000000000000E+00
(PID.TID 0000.0001) %MON seaice_hsnow_mean            =   0.0000000000000E+00
(PID.TID 0000.0001) %MON seaice_hsnow_sd              =   0.0000000000000E+00
(PID.TID 0000.0001) %MON seaice_hsnow_del2            =   0.0000000000000E+00
(PID.TID 0000.0001) // =======================================================
(PID.TID 0000.0001) // End MONITOR SEAICE statistics
(PID.TID 0000.0001) // =======================================================
 Computing Diagnostic #    163  SIuice       Counter:       1   Parms: UU      M1      
           Vector  Mate for  SIuice       Diagnostic #    164  SIvice   exists 
 Computing Diagnostic #    164  SIvice       Counter:       1   Parms: VV      M1      
           Vector  Mate for  SIvice       Diagnostic #    163  SIuice   exists 
 Computing Diagnostic #    149  SIheff       Counter:       1   Parms: SM      M1      
 Computing Diagnostic #    146  SIarea       Counter:       1   Parms: SM      M1      
 Computing Diagnostic #    228  SIshear      Counter:       1   Parms: SM      M1      
 Computing Diagnostic #    233  SIcohes      Counter:       1   Parms: SM      M1      
 Computing Diagnostic #    221  SIsig1       Counter:       1   Parms: SM      M1      
 Computing Diagnostic #    222  SIsig2       Counter:       1   Parms: SM      M1      
 Computing Diagnostic #    231  SIdamage     Counter:       1   Parms: SM      M1      
 Computing Diagnostic #    165  SItaux       Counter:       1   Parms: UU      U1      
           Vector  Mate for  SItaux       Diagnostic #    166  SItauy   exists 
 Computing Diagnostic #    166  SItauy       Counter:       1   Parms: VV      U1      
           Vector  Mate for  SItauy       Diagnostic #    165  SItaux   exists 
 Computing Diagnostic #    133  EXFuwind     Counter:       1   Parms: UM      U1      
 Computing Diagnostic #    134  EXFvwind     Counter:       1   Parms: VM      U1      
(PID.TID 0000.0001)  S/R SEAICE_KRYLOV: Picard iterate / total, KRYLOVgamma_lin, initial norm =       1    401 0.10000E+00 0.11246E+00
(PID.TID 0000.0001)  S/R SEAICE_KRYLOV: Picard iterate / total =      1 /    401, Nb. of FGMRES iterations =      1
(PID.TID 0000.0001)  S/R SEAICE_KRYLOV: Picard iterate / total, KRYLOVgamma_lin, initial norm =       2    402 0.50000E-01 0.24608E-03
(PID.TID 0000.0001)  S/R SEAICE_KRYLOV: Picard iterate / total =      2 /    402, Nb. of FGMRES iterations =      1
(PID.TID 0000.0001)  S/R SEAICE_KRYLOV: Picard iterate / total, KRYLOVgamma_lin, initial norm =       3    403 0.50000E-01 0.31956E-04
(PID.TID 0000.0001)  S/R SEAICE_KRYLOV: Picard iterate / total =      3 /    403, Nb. of FGMRES iterations =      1
(PID.TID 0000.0001)  S/R SEAICE_KRYLOV: Picard iterate / total, KRYLOVgamma_lin, initial norm =       4    404 0.33333E-01 0.22418E-04
(PID.TID 0000.0001)  S/R SEAICE_KRYLOV: Picard iterate / total =      4 /    404, Nb. of FGMRES iterations =      1
(PID.TID 0000.0001)  S/R SEAICE_KRYLOV: Picard iterate / total, KRYLOVgamma_lin, initial norm =       5    405 0.33333E-01 0.10663E-04
(PID.TID 0000.0001)  S/R SEAICE_KRYLOV: Picard iterate / total =      5 /    405, Nb. of FGMRES iterations =      1
(PID.TID 0000.0001)  S/R SEAICE_KRYLOV: Picard iterate / total, KRYLOVgamma_lin, initial norm =       6    406 0.33333E-01 0.53756E-05
(PID.TID 0000.0001)  S/R SEAICE_KRYLOV: Picard iterate / total =      6 /    406, Nb. of FGMRES iterations =      1
(PID.TID 0000.0001)  S/R SEAICE_KRYLOV: Picard iterate / total, KRYLOVgamma_lin, initial norm =       7    407 0.33333E-01 0.26842E-05
(PID.TID 0000.0001)  S/R SEAICE_KRYLOV: Picard iterate / total =      7 /    407, Nb. of FGMRES iterations =      1
(PID.TID 0000.0001)  S/R SEAICE_KRYLOV: Picard iterate / total, KRYLOVgamma_lin, initial norm =       8    408 0.25000E-01 0.13424E-05
(PID.TID 0000.0001)  S/R SEAICE_KRYLOV: Picard iterate / total =      8 /    408, Nb. of FGMRES iterations =      1
(PID.TID 0000.0001)  S/R SEAICE_KRYLOV: Picard iterate / total, KRYLOVgamma_lin, initial norm =       9    409 0.20000E-01 0.67117E-06
(PID.TID 0000.0001)  S/R SEAICE_KRYLOV: Picard iterate / total =      9 /    409, Nb. of FGMRES iterations =      1
(PID.TID 0000.0001)  S/R SEAICE_KRYLOV: Picard iterate / total, KRYLOVgamma_lin, initial norm =      10    410 0.12500E-01 0.33559E-06
(PID.TID 0000.0001)  S/R SEAICE_KRYLOV: Picard iterate / total =     10 /    410, Nb. of FGMRES iterations =      1
(PID.TID 0000.0001)  S/R SEAICE_KRYLOV: Picard iterate / total, KRYLOVgamma_lin, initial norm =      11    411 0.12500E-01 0.16779E-06
(PID.TID 0000.0001)  S/R SEAICE_KRYLOV: Picard iterate / total =     11 /    411, Nb. of FGMRES iterations =      1
(PID.TID 0000.0001)  S/R SEAICE_KRYLOV: Picard iterate / total, KRYLOVgamma_lin, initial norm =      12    412 0.12500E-01 0.83896E-07
(PID.TID 0000.0001)  S/R SEAICE_KRYLOV: Picard iterate / total =     12 /    412, Nb. of FGMRES iterations =      1
(PID.TID 0000.0001)  S/R SEAICE_KRYLOV: Picard iterate / total, KRYLOVgamma_lin, initial norm =      13    413 0.12500E-01 0.41948E-07
(PID.TID 0000.0001)  S/R SEAICE_KRYLOV: Picard iterate / total =     13 /    413, Nb. of FGMRES iterations =      1
(PID.TID 0000.0001)  S/R SEAICE_KRYLOV: Picard iterate / total, KRYLOVgamma_lin, initial norm =      14    414 0.12500E-01 0.20974E-07
(PID.TID 0000.0001)  S/R SEAICE_KRYLOV: Picard iterate / total =     14 /    414, Nb. of FGMRES iterations =      1
(PID.TID 0000.0001)  S/R SEAICE_KRYLOV: Picard iterate / total, KRYLOVgamma_lin, initial norm =      15    415 0.12500E-01 0.10487E-07
(PID.TID 0000.0001)  S/R SEAICE_KRYLOV: Picard iterate / total =     15 /    415, Nb. of FGMRES iterations =      1
(PID.TID 0000.0001)  S/R SEAICE_KRYLOV: Picard iterate / total, KRYLOVgamma_lin, initial norm =      16    416 0.12500E-01 0.52435E-08
(PID.TID 0000.0001)  S/R SEAICE_KRYLOV: Picard iterate / total =     16 /    416, Nb. of FGMRES iterations =      1
(PID.TID 0000.0001)  S/R SEAICE_KRYLOV: Picard iterate / total, KRYLOVgamma_lin, initial norm =      17    417 0.12500E-01 0.26218E-08
(PID.TID 0000.0001)  S/R SEAICE_KRYLOV: Picard iterate / total =     17 /    417, Nb. of FGMRES iterations =      1
(PID.TID 0000.0001)  S/R SEAICE_KRYLOV: Picard iterate / total, KRYLOVgamma_lin, initial norm =      18    418 0.12500E-01 0.13109E-08
(PID.TID 0000.0001)  S/R SEAICE_KRYLOV: Picard iterate / total =     18 /    418, Nb. of FGMRES iterations =      1
(PID.TID 0000.0001)  S/R SEAICE_KRYLOV: Picard iterate / total, KRYLOVgamma_lin, initial norm =      19    419 0.12500E-01 0.65544E-09
(PID.TID 0000.0001)  S/R SEAICE_KRYLOV: Picard iterate / total =     19 /    419, Nb. of FGMRES iterations =      1
(PID.TID 0000.0001)  S/R SEAICE_KRYLOV: Picard iterate / total, KRYLOVgamma_lin, initial norm =      20    420 0.12500E-01 0.32772E-09
(PID.TID 0000.0001)  S/R SEAICE_KRYLOV: Picard iterate / total =     20 /    420, Nb. of FGMRES iterations =      1
(PID.TID 0000.0001)  S/R SEAICE_KRYLOV: Picard iterate / total, KRYLOVgamma_lin, initial norm =      21    421 0.12500E-01 0.16386E-09
(PID.TID 0000.0001)  S/R SEAICE_KRYLOV: Picard iterate / total =     21 /    421, Nb. of FGMRES iterations =      1
(PID.TID 0000.0001)  S/R SEAICE_KRYLOV: Picard iterate / total, KRYLOVgamma_lin, initial norm =      22    422 0.12500E-01 0.81930E-10
(PID.TID 0000.0001)  S/R SEAICE_KRYLOV: Picard iterate / total =     22 /    422, Nb. of FGMRES iterations =      1
(PID.TID 0000.0001)  S/R SEAICE_KRYLOV: Picard iterate / total, KRYLOVgamma_lin, initial norm =      23    423 0.12500E-01 0.40965E-10
(PID.TID 0000.0001)  S/R SEAICE_KRYLOV: Picard iterate / total =     23 /    423, Nb. of FGMRES iterations =      1
(PID.TID 0000.0001)  S/R SEAICE_KRYLOV: Picard iterate / total, KRYLOVgamma_lin, initial norm =      24    424 0.12500E-01 0.20483E-10
(PID.TID 0000.0001)  S/R SEAICE_KRYLOV: Picard iterate / total =     24 /    424, Nb. of FGMRES iterations =      1
(PID.TID 0000.0001)  S/R SEAICE_KRYLOV: Picard iterate / total, KRYLOVgamma_lin, initial norm =      25    425 0.12500E-01 0.10241E-10
(PID.TID 0000.0001)  S/R SEAICE_KRYLOV: Picard iterate / total =     25 /    425, Nb. of FGMRES iterations =      1
(PID.TID 0000.0001)  S/R SEAICE_KRYLOV: Picard iterate / total, KRYLOVgamma_lin, initial norm =      26    426 0.12500E-01 0.51206E-11
(PID.TID 0000.0001)  S/R SEAICE_KRYLOV: Picard iterate / total =     26 /    426, Nb. of FGMRES iterations =      1
(PID.TID 0000.0001)  S/R SEAICE_KRYLOV: Picard iterate / total, KRYLOVgamma_lin, initial norm =      27    427 0.12500E-01 0.25603E-11
(PID.TID 0000.0001)  S/R SEAICE_KRYLOV: Picard iterate / total =     27 /    427, Nb. of FGMRES iterations =      1
(PID.TID 0000.0001)  S/R SEAICE_KRYLOV: Picard iterate / total, KRYLOVgamma_lin, initial norm =      28    428 0.12500E-01 0.12802E-11
(PID.TID 0000.0001)  S/R SEAICE_KRYLOV: Picard iterate / total =     28 /    428, Nb. of FGMRES iterations =      1
(PID.TID 0000.0001)  S/R SEAICE_KRYLOV: Picard iterate / total, KRYLOVgamma_lin, initial norm =      29    429 0.12500E-01 0.64008E-12
(PID.TID 0000.0001)  S/R SEAICE_KRYLOV: Picard iterate / total =     29 /    429, Nb. of FGMRES iterations =      1
(PID.TID 0000.0001)  S/R SEAICE_KRYLOV: Picard iterate / total, KRYLOVgamma_lin, initial norm =      30    430 0.12500E-01 0.32004E-12
(PID.TID 0000.0001)  S/R SEAICE_KRYLOV: Picard iterate / total =     30 /    430, Nb. of FGMRES iterations =      1
(PID.TID 0000.0001)  S/R SEAICE_KRYLOV: Picard iterate / total, KRYLOVgamma_lin, initial norm =      31    431 0.12500E-01 0.16002E-12
(PID.TID 0000.0001)  S/R SEAICE_KRYLOV: Picard iterate / total =     31 /    431, Nb. of FGMRES iterations =      1
(PID.TID 0000.0001)  S/R SEAICE_KRYLOV: Picard iterate / total, KRYLOVgamma_lin, final   norm =      32    432 0.12500E-01 0.80010E-13
(PID.TID 0000.0001)  // =======================================================
(PID.TID 0000.0001)  // Begin KRYLOV statistics
(PID.TID 0000.0001)  // =======================================================
(PID.TID 0000.0001)  %KRYLOV_MON: time step              =          5
(PID.TID 0000.0001)  %KRYLOV_MON: Nb. of time steps      =          1
(PID.TID 0000.0001)  %KRYLOV_MON: Nb. of Picard steps    =         32
(PID.TID 0000.0001)  %KRYLOV_MON: Nb. of Krylov steps    =         31
(PID.TID 0000.0001)  %KRYLOV_MON: Nb. of Picard failures =          0
(PID.TID 0000.0001)  %KRYLOV_MON: Nb. of Krylov failures =          0
(PID.TID 0000.0001)  // =======================================================
(PID.TID 0000.0001)  // End KRYLOV statistics
(PID.TID 0000.0001)  // =======================================================
(PID.TID 0000.0001)  S/R SEAICE_KRYLOV: Total number FGMRES iterations =     31 in timestep          5
(PID.TID 0000.0001) // =======================================================
(PID.TID 0000.0001) // Begin MONITOR dynamic field statistics
(PID.TID 0000.0001) // =======================================================
(PID.TID 0000.0001) %MON time_tsnumber                =                     5
(PID.TID 0000.0001) %MON time_secondsf                =   1.2500000000000E+01
(PID.TID 0000.0001) %MON dynstat_eta_max              =   0.0000000000000E+00
(PID.TID 0000.0001) %MON dynstat_eta_min              =   0.0000000000000E+00
(PID.TID 0000.0001) %MON dynstat_eta_mean             =   0.0000000000000E+00
(PID.TID 0000.0001) %MON dynstat_eta_sd               =   0.0000000000000E+00
(PID.TID 0000.0001) %MON dynstat_eta_del2             =   0.0000000000000E+00
(PID.TID 0000.0001) %MON dynstat_uvel_max             =   9.8437500000000E-03
(PID.TID 0000.0001) %MON dynstat_uvel_min             =  -9.8437500000000E-03
(PID.TID 0000.0001) %MON dynstat_uvel_mean            =   0.0000000000000E+00
(PID.TID 0000.0001) %MON dynstat_uvel_sd              =   5.7727978755972E-03
(PID.TID 0000.0001) %MON dynstat_uvel_del2            =   1.0089048364799E-20
(PID.TID 0000.0001) %MON dynstat_vvel_max             =   9.8437500000000E-03
(PID.TID 0000.0001) %MON dynstat_vvel_min             =  -9.8437500000000E-03
(PID.TID 0000.0001) %MON dynstat_vvel_mean            =   0.0000000000000E+00
(PID.TID 0000.0001) %MON dynstat_vvel_sd              =   5.7727978755972E-03
(PID.TID 0000.0001) %MON dynstat_vvel_del2            =   1.0089048364799E-20
(PID.TID 0000.0001) %MON dynstat_wvel_max             =   1.1914062500000E-05
(PID.TID 0000.0001) %MON dynstat_wvel_min             =  -1.1914062500000E-05
(PID.TID 0000.0001) %MON dynstat_wvel_mean            =   3.4694469519536E-25
(PID.TID 0000.0001) %MON dynstat_wvel_sd              =   1.7200872247780E-06
(PID.TID 0000.0001) %MON dynstat_wvel_del2            =   2.8187489626940E-08
(PID.TID 0000.0001) %MON dynstat_theta_max            =  -1.6200000000000E+00
(PID.TID 0000.0001) %MON dynstat_theta_min            =  -1.6200000000000E+00
(PID.TID 0000.0001) %MON dynstat_theta_mean           =  -1.6200000000000E+00
(PID.TID 0000.0001) %MON dynstat_theta_sd             =   0.0000000000000E+00
(PID.TID 0000.0001) %MON dynstat_theta_del2           =   0.0000000000000E+00
(PID.TID 0000.0001) %MON dynstat_salt_max             =   3.0000000000000E+01
(PID.TID 0000.0001) %MON dynstat_salt_min             =   3.0000000000000E+01
(PID.TID 0000.0001) %MON dynstat_salt_mean            =   3.0000000000000E+01
(PID.TID 0000.0001) %MON dynstat_salt_sd              =   0.0000000000000E+00
(PID.TID 0000.0001) %MON dynstat_salt_del2            =   0.0000000000000E+00
(PID.TID 0000.0001) %MON trAdv_CFL_u_max              =   3.0761718750000E-06
(PID.TID 0000.0001) %MON trAdv_CFL_v_max              =   3.0761718750000E-06
(PID.TID 0000.0001) %MON trAdv_CFL_w_max              =   2.9785156250000E-06
(PID.TID 0000.0001) %MON advcfl_uvel_max              =   3.0761718750000E-06
(PID.TID 0000.0001) %MON advcfl_vvel_max              =   3.0761718750000E-06
(PID.TID 0000.0001) %MON advcfl_wvel_max              =   5.9570312500000E-06
(PID.TID 0000.0001) %MON advcfl_W_hf_max              =   0.0000000000000E+00
(PID.TID 0000.0001) %MON pe_b_mean                    =   0.0000000000000E+00
(PID.TID 0000.0001) %MON ke_max                       =   9.0844726562500E-05
(PID.TID 0000.0001) %MON ke_mean                      =   3.2804489135742E-05
(PID.TID 0000.0001) %MON ke_vol                       =   2.6214400000000E+12
(PID.TID 0000.0001) %MON vort_r_min                   =  -7.8125000000000E-08
(PID.TID 0000.0001) %MON vort_r_max                   =   1.2304687500000E-06
(PID.TID 0000.0001) %MON vort_a_mean                  =   1.4856000000000E-04
(PID.TID 0000.0001) %MON vort_a_sd                    =   1.5312918562496E-06
(PID.TID 0000.0001) %MON vort_p_mean                  =   1.5552375000000E-04
(PID.TID 0000.0001) %MON vort_p_sd                    =   5.5921473110222E-05
(PID.TID 0000.0001) %MON surfExpan_theta_mean         =   0.0000000000000E+00
(PID.TID 0000.0001) %MON surfExpan_salt_mean          =   1.3877787807814E-23
(PID.TID 0000.0001) // =======================================================
(PID.TID 0000.0001) // End MONITOR dynamic field statistics
(PID.TID 0000.0001) // =======================================================
(PID.TID 0000.0001) // =======================================================
(PID.TID 0000.0001) // Begin MONITOR SEAICE statistics
(PID.TID 0000.0001) // =======================================================
(PID.TID 0000.0001) %MON seaice_tsnumber              =                     5
(PID.TID 0000.0001) %MON seaice_time_sec              =   1.2500000000000E+01
(PID.TID 0000.0001) %MON seaice_uice_max              =   8.7075083240042E-03
(PID.TID 0000.0001) %MON seaice_uice_min              =  -8.9051538146450E-03
(PID.TID 0000.0001) %MON seaice_uice_mean             =  -2.0062487673425E-07
(PID.TID 0000.0001) %MON seaice_uice_sd               =   3.7464338806414E-03
(PID.TID 0000.0001) %MON seaice_uice_del2             =   1.1117971504904E-06
(PID.TID 0000.0001) %MON seaice_vice_max              =   8.4975996385836E-03
(PID.TID 0000.0001) %MON seaice_vice_min              =  -8.6077795503596E-03
(PID.TID 0000.0001) %MON seaice_vice_mean             =   9.2935903754979E-07
(PID.TID 0000.0001) %MON seaice_vice_sd               =   3.7280443993202E-03
(PID.TID 0000.0001) %MON seaice_vice_del2             =   1.1121354984985E-06
(PID.TID 0000.0001) %MON seaice_area_max              =   1.0000000000000E+00
(PID.TID 0000.0001) %MON seaice_area_min              =   9.9999896146167E-01
(PID.TID 0000.0001) %MON seaice_area_mean             =   9.9999993644303E-01
(PID.TID 0000.0001) %MON seaice_area_sd               =   1.4283068201462E-07
(PID.TID 0000.0001) %MON seaice_area_del2             =   1.4750779020797E-09
(PID.TID 0000.0001) %MON seaice_heff_max              =   3.0999865630522E-01
(PID.TID 0000.0001) %MON seaice_heff_min              =   2.9006054858748E-01
(PID.TID 0000.0001) %MON seaice_heff_mean             =   3.0067126525963E-01
(PID.TID 0000.0001) %MON seaice_heff_sd               =   5.0069228640522E-03
(PID.TID 0000.0001) %MON seaice_heff_del2             =   1.2853748022380E-05
(PID.TID 0000.0001) %MON seaice_hsnow_max             =   0.0000000000000E+00
(PID.TID 0000.0001) %MON seaice_hsnow_min             =   0.0000000000000E+00
(PID.TID 0000.0001) %MON seaice_hsnow_mean            =   0.0000000000000E+00
(PID.TID 0000.0001) %MON seaice_hsnow_sd              =   0.0000000000000E+00
(PID.TID 0000.0001) %MON seaice_hsnow_del2            =   0.0000000000000E+00
(PID.TID 0000.0001) // =======================================================
(PID.TID 0000.0001) // End MONITOR SEAICE statistics
(PID.TID 0000.0001) // =======================================================
 Computing Diagnostic #    163  SIuice       Counter:       1   Parms: UU      M1      
           Vector  Mate for  SIuice       Diagnostic #    164  SIvice   exists 
 Computing Diagnostic #    164  SIvice       Counter:       1   Parms: VV      M1      
           Vector  Mate for  SIvice       Diagnostic #    163  SIuice   exists 
 Computing Diagnostic #    149  SIheff       Counter:       1   Parms: SM      M1      
 Computing Diagnostic #    146  SIarea       Counter:       1   Parms: SM      M1      
 Computing Diagnostic #    228  SIshear      Counter:       1   Parms: SM      M1      
 Computing Diagnostic #    233  SIcohes      Counter:       1   Parms: SM      M1      
 Computing Diagnostic #    221  SIsig1       Counter:       1   Parms: SM      M1      
 Computing Diagnostic #    222  SIsig2       Counter:       1   Parms: SM      M1      
 Computing Diagnostic #    231  SIdamage     Counter:       1   Parms: SM      M1      
 Computing Diagnostic #    165  SItaux       Counter:       1   Parms: UU      U1      
           Vector  Mate for  SItaux       Diagnostic #    166  SItauy   exists 
 Computing Diagnostic #    166  SItauy       Counter:       1   Parms: VV      U1      
           Vector  Mate for  SItauy       Diagnostic #    165  SItaux   exists 
 Computing Diagnostic #    133  EXFuwind     Counter:       1   Parms: UM      U1      
 Computing Diagnostic #    134  EXFvwind     Counter:       1   Parms: VM      U1      
(PID.TID 0000.0001)  S/R SEAICE_KRYLOV: Picard iterate / total, KRYLOVgamma_lin, initial norm =       1    501 0.10000E+00 0.11201E+00
(PID.TID 0000.0001)  S/R SEAICE_KRYLOV: Picard iterate / total =      1 /    501, Nb. of FGMRES iterations =      1
(PID.TID 0000.0001)  S/R SEAICE_KRYLOV: Picard iterate / total, KRYLOVgamma_lin, initial norm =       2    502 0.50000E-01 0.26040E-03
(PID.TID 0000.0001)  S/R SEAICE_KRYLOV: Picard iterate / total =      2 /    502, Nb. of FGMRES iterations =      1
(PID.TID 0000.0001)  S/R SEAICE_KRYLOV: Picard iterate / total, KRYLOVgamma_lin, initial norm =       3    503 0.50000E-01 0.29834E-04
(PID.TID 0000.0001)  S/R SEAICE_KRYLOV: Picard iterate / total =      3 /    503, Nb. of FGMRES iterations =      1
(PID.TID 0000.0001)  S/R SEAICE_KRYLOV: Picard iterate / total, KRYLOVgamma_lin, initial norm =       4    504 0.33333E-01 0.22158E-04
(PID.TID 0000.0001)  S/R SEAICE_KRYLOV: Picard iterate / total =      4 /    504, Nb. of FGMRES iterations =      1
(PID.TID 0000.0001)  S/R SEAICE_KRYLOV: Picard iterate / total, KRYLOVgamma_lin, initial norm =       5    505 0.33333E-01 0.10460E-04
(PID.TID 0000.0001)  S/R SEAICE_KRYLOV: Picard iterate / total =      5 /    505, Nb. of FGMRES iterations =      1
(PID.TID 0000.0001)  S/R SEAICE_KRYLOV: Picard iterate / total, KRYLOVgamma_lin, initial norm =       6    506 0.33333E-01 0.52807E-05
(PID.TID 0000.0001)  S/R SEAICE_KRYLOV: Picard iterate / total =      6 /    506, Nb. of FGMRES iterations =      1
(PID.TID 0000.0001)  S/R SEAICE_KRYLOV: Picard iterate / total, KRYLOVgamma_lin, initial norm =       7    507 0.33333E-01 0.26362E-05
(PID.TID 0000.0001)  S/R SEAICE_KRYLOV: Picard iterate / total =      7 /    507, Nb. of FGMRES iterations =      1
(PID.TID 0000.0001)  S/R SEAICE_KRYLOV: Picard iterate / total, KRYLOVgamma_lin, initial norm =       8    508 0.25000E-01 0.13184E-05
(PID.TID 0000.0001)  S/R SEAICE_KRYLOV: Picard iterate / total =      8 /    508, Nb. of FGMRES iterations =      1
(PID.TID 0000.0001)  S/R SEAICE_KRYLOV: Picard iterate / total, KRYLOVgamma_lin, initial norm =       9    509 0.20000E-01 0.65919E-06
(PID.TID 0000.0001)  S/R SEAICE_KRYLOV: Picard iterate / total =      9 /    509, Nb. of FGMRES iterations =      1
(PID.TID 0000.0001)  S/R SEAICE_KRYLOV: Picard iterate / total, KRYLOVgamma_lin, initial norm =      10    510 0.12500E-01 0.32960E-06
(PID.TID 0000.0001)  S/R SEAICE_KRYLOV: Picard iterate / total =     10 /    510, Nb. of FGMRES iterations =      1
(PID.TID 0000.0001)  S/R SEAICE_KRYLOV: Picard iterate / total, KRYLOVgamma_lin, initial norm =      11    511 0.12500E-01 0.16480E-06
(PID.TID 0000.0001)  S/R SEAICE_KRYLOV: Picard iterate / total =     11 /    511, Nb. of FGMRES iterations =      1
(PID.TID 0000.0001)  S/R SEAICE_KRYLOV: Picard iterate / total, KRYLOVgamma_lin, initial norm =      12    512 0.12500E-01 0.82399E-07
(PID.TID 0000.0001)  S/R SEAICE_KRYLOV: Picard iterate / total =     12 /    512, Nb. of FGMRES iterations =      1
(PID.TID 0000.0001)  S/R SEAICE_KRYLOV: Picard iterate / total, KRYLOVgamma_lin, initial norm =      13    513 0.12500E-01 0.41200E-07
(PID.TID 0000.0001)  S/R SEAICE_KRYLOV: Picard iterate / total =     13 /    513, Nb. of FGMRES iterations =      1
(PID.TID 0000.0001)  S/R SEAICE_KRYLOV: Picard iterate / total, KRYLOVgamma_lin, initial norm =      14    514 0.12500E-01 0.20600E-07
(PID.TID 0000.0001)  S/R SEAICE_KRYLOV: Picard iterate / total =     14 /    514, Nb. of FGMRES iterations =      1
(PID.TID 0000.0001)  S/R SEAICE_KRYLOV: Picard iterate / total, KRYLOVgamma_lin, initial norm =      15    515 0.12500E-01 0.10300E-07
(PID.TID 0000.0001)  S/R SEAICE_KRYLOV: Picard iterate / total =     15 /    515, Nb. of FGMRES iterations =      1
(PID.TID 0000.0001)  S/R SEAICE_KRYLOV: Picard iterate / total, KRYLOVgamma_lin, initial norm =      16    516 0.12500E-01 0.51500E-08
(PID.TID 0000.0001)  S/R SEAICE_KRYLOV: Picard iterate / total =     16 /    516, Nb. of FGMRES iterations =      1
(PID.TID 0000.0001)  S/R SEAICE_KRYLOV: Picard iterate / total, KRYLOVgamma_lin, initial norm =      17    517 0.12500E-01 0.25750E-08
(PID.TID 0000.0001)  S/R SEAICE_KRYLOV: Picard iterate / total =     17 /    517, Nb. of FGMRES iterations =      1
(PID.TID 0000.0001)  S/R SEAICE_KRYLOV: Picard iterate / total, KRYLOVgamma_lin, initial norm =      18    518 0.12500E-01 0.12875E-08
(PID.TID 0000.0001)  S/R SEAICE_KRYLOV: Picard iterate / total =     18 /    518, Nb. of FGMRES iterations =      1
(PID.TID 0000.0001)  S/R SEAICE_KRYLOV: Picard iterate / total, KRYLOVgamma_lin, initial norm =      19    519 0.12500E-01 0.64374E-09
(PID.TID 0000.0001)  S/R SEAICE_KRYLOV: Picard iterate / total =     19 /    519, Nb. of FGMRES iterations =      1
(PID.TID 0000.0001)  S/R SEAICE_KRYLOV: Picard iterate / total, KRYLOVgamma_lin, initial norm =      20    520 0.12500E-01 0.32187E-09
(PID.TID 0000.0001)  S/R SEAICE_KRYLOV: Picard iterate / total =     20 /    520, Nb. of FGMRES iterations =      1
(PID.TID 0000.0001)  S/R SEAICE_KRYLOV: Picard iterate / total, KRYLOVgamma_lin, initial norm =      21    521 0.12500E-01 0.16094E-09
(PID.TID 0000.0001)  S/R SEAICE_KRYLOV: Picard iterate / total =     21 /    521, Nb. of FGMRES iterations =      1
(PID.TID 0000.0001)  S/R SEAICE_KRYLOV: Picard iterate / total, KRYLOVgamma_lin, initial norm =      22    522 0.12500E-01 0.80468E-10
(PID.TID 0000.0001)  S/R SEAICE_KRYLOV: Picard iterate / total =     22 /    522, Nb. of FGMRES iterations =      1
(PID.TID 0000.0001)  S/R SEAICE_KRYLOV: Picard iterate / total, KRYLOVgamma_lin, initial norm =      23    523 0.12500E-01 0.40234E-10
(PID.TID 0000.0001)  S/R SEAICE_KRYLOV: Picard iterate / total =     23 /    523, Nb. of FGMRES iterations =      1
(PID.TID 0000.0001)  S/R SEAICE_KRYLOV: Picard iterate / total, KRYLOVgamma_lin, initial norm =      24    524 0.12500E-01 0.20117E-10
(PID.TID 0000.0001)  S/R SEAICE_KRYLOV: Picard iterate / total =     24 /    524, Nb. of FGMRES iterations =      1
(PID.TID 0000.0001)  S/R SEAICE_KRYLOV: Picard iterate / total, KRYLOVgamma_lin, initial norm =      25    525 0.12500E-01 0.10058E-10
(PID.TID 0000.0001)  S/R SEAICE_KRYLOV: Picard iterate / total =     25 /    525, Nb. of FGMRES iterations =      1
(PID.TID 0000.0001)  S/R SEAICE_KRYLOV: Picard iterate / total, KRYLOVgamma_lin, initial norm =      26    526 0.12500E-01 0.50292E-11
(PID.TID 0000.0001)  S/R SEAICE_KRYLOV: Picard iterate / total =     26 /    526, Nb. of FGMRES iterations =      1
(PID.TID 0000.0001)  S/R SEAICE_KRYLOV: Picard iterate / total, KRYLOVgamma_lin, initial norm =      27    527 0.12500E-01 0.25146E-11
(PID.TID 0000.0001)  S/R SEAICE_KRYLOV: Picard iterate / total =     27 /    527, Nb. of FGMRES iterations =      1
(PID.TID 0000.0001)  S/R SEAICE_KRYLOV: Picard iterate / total, KRYLOVgamma_lin, initial norm =      28    528 0.12500E-01 0.12573E-11
(PID.TID 0000.0001)  S/R SEAICE_KRYLOV: Picard iterate / total =     28 /    528, Nb. of FGMRES iterations =      1
(PID.TID 0000.0001)  S/R SEAICE_KRYLOV: Picard iterate / total, KRYLOVgamma_lin, initial norm =      29    529 0.12500E-01 0.62866E-12
(PID.TID 0000.0001)  S/R SEAICE_KRYLOV: Picard iterate / total =     29 /    529, Nb. of FGMRES iterations =      1
(PID.TID 0000.0001)  S/R SEAICE_KRYLOV: Picard iterate / total, KRYLOVgamma_lin, initial norm =      30    530 0.12500E-01 0.31433E-12
(PID.TID 0000.0001)  S/R SEAICE_KRYLOV: Picard iterate / total =     30 /    530, Nb. of FGMRES iterations =      1
(PID.TID 0000.0001)  S/R SEAICE_KRYLOV: Picard iterate / total, KRYLOVgamma_lin, initial norm =      31    531 0.12500E-01 0.15716E-12
(PID.TID 0000.0001)  S/R SEAICE_KRYLOV: Picard iterate / total =     31 /    531, Nb. of FGMRES iterations =      1
(PID.TID 0000.0001)  S/R SEAICE_KRYLOV: Picard iterate / total, KRYLOVgamma_lin, final   norm =      32    532 0.12500E-01 0.78582E-13
(PID.TID 0000.0001)  // =======================================================
(PID.TID 0000.0001)  // Begin KRYLOV statistics
(PID.TID 0000.0001)  // =======================================================
(PID.TID 0000.0001)  %KRYLOV_MON: time step              =          6
(PID.TID 0000.0001)  %KRYLOV_MON: Nb. of time steps      =          1
(PID.TID 0000.0001)  %KRYLOV_MON: Nb. of Picard steps    =         32
(PID.TID 0000.0001)  %KRYLOV_MON: Nb. of Krylov steps    =         31
(PID.TID 0000.0001)  %KRYLOV_MON: Nb. of Picard failures =          0
(PID.TID 0000.0001)  %KRYLOV_MON: Nb. of Krylov failures =          0
(PID.TID 0000.0001)  // =======================================================
(PID.TID 0000.0001)  // End KRYLOV statistics
(PID.TID 0000.0001)  // =======================================================
(PID.TID 0000.0001)  S/R SEAICE_KRYLOV: Total number FGMRES iterations =     31 in timestep          6
(PID.TID 0000.0001) // =======================================================
(PID.TID 0000.0001) // Begin MONITOR dynamic field statistics
(PID.TID 0000.0001) // =======================================================
(PID.TID 0000.0001) %MON time_tsnumber                =                     6
(PID.TID 0000.0001) %MON time_secondsf                =   1.5000000000000E+01
(PID.TID 0000.0001) %MON dynstat_eta_max              =   0.0000000000000E+00
(PID.TID 0000.0001) %MON dynstat_eta_min              =   0.0000000000000E+00
(PID.TID 0000.0001) %MON dynstat_eta_mean             =   0.0000000000000E+00
(PID.TID 0000.0001) %MON dynstat_eta_sd               =   0.0000000000000E+00
(PID.TID 0000.0001) %MON dynstat_eta_del2             =   0.0000000000000E+00
(PID.TID 0000.0001) %MON dynstat_uvel_max             =   9.8437500000000E-03
(PID.TID 0000.0001) %MON dynstat_uvel_min             =  -9.8437500000000E-03
(PID.TID 0000.0001) %MON dynstat_uvel_mean            =   0.0000000000000E+00
(PID.TID 0000.0001) %MON dynstat_uvel_sd              =   5.7727978755972E-03
(PID.TID 0000.0001) %MON dynstat_uvel_del2            =   1.0089048364799E-20
(PID.TID 0000.0001) %MON dynstat_vvel_max             =   9.8437500000000E-03
(PID.TID 0000.0001) %MON dynstat_vvel_min             =  -9.8437500000000E-03
(PID.TID 0000.0001) %MON dynstat_vvel_mean            =   0.0000000000000E+00
(PID.TID 0000.0001) %MON dynstat_vvel_sd              =   5.7727978755972E-03
(PID.TID 0000.0001) %MON dynstat_vvel_del2            =   1.0089048364799E-20
(PID.TID 0000.0001) %MON dynstat_wvel_max             =   1.1914062500000E-05
(PID.TID 0000.0001) %MON dynstat_wvel_min             =  -1.1914062500000E-05
(PID.TID 0000.0001) %MON dynstat_wvel_mean            =   3.4694469519536E-25
(PID.TID 0000.0001) %MON dynstat_wvel_sd              =   1.7200872247780E-06
(PID.TID 0000.0001) %MON dynstat_wvel_del2            =   2.8187489626940E-08
(PID.TID 0000.0001) %MON dynstat_theta_max            =  -1.6200000000000E+00
(PID.TID 0000.0001) %MON dynstat_theta_min            =  -1.6200000000000E+00
(PID.TID 0000.0001) %MON dynstat_theta_mean           =  -1.6200000000000E+00
(PID.TID 0000.0001) %MON dynstat_theta_sd             =   0.0000000000000E+00
(PID.TID 0000.0001) %MON dynstat_theta_del2           =   0.0000000000000E+00
(PID.TID 0000.0001) %MON dynstat_salt_max             =   3.0000000000000E+01
(PID.TID 0000.0001) %MON dynstat_salt_min             =   3.0000000000000E+01
(PID.TID 0000.0001) %MON dynstat_salt_mean            =   3.0000000000000E+01
(PID.TID 0000.0001) %MON dynstat_salt_sd              =   0.0000000000000E+00
(PID.TID 0000.0001) %MON dynstat_salt_del2            =   0.0000000000000E+00
(PID.TID 0000.0001) %MON trAdv_CFL_u_max              =   3.0761718750000E-06
(PID.TID 0000.0001) %MON trAdv_CFL_v_max              =   3.0761718750000E-06
(PID.TID 0000.0001) %MON trAdv_CFL_w_max              =   2.9785156250000E-06
(PID.TID 0000.0001) %MON advcfl_uvel_max              =   3.0761718750000E-06
(PID.TID 0000.0001) %MON advcfl_vvel_max              =   3.0761718750000E-06
(PID.TID 0000.0001) %MON advcfl_wvel_max              =   5.9570312500000E-06
(PID.TID 0000.0001) %MON advcfl_W_hf_max              =   0.0000000000000E+00
(PID.TID 0000.0001) %MON pe_b_mean                    =   0.0000000000000E+00
(PID.TID 0000.0001) %MON ke_max                       =   9.0844726562500E-05
(PID.TID 0000.0001) %MON ke_mean                      =   3.2804489135742E-05
(PID.TID 0000.0001) %MON ke_vol                       =   2.6214400000000E+12
(PID.TID 0000.0001) %MON vort_r_min                   =  -7.8125000000000E-08
(PID.TID 0000.0001) %MON vort_r_max                   =   1.2304687500000E-06
(PID.TID 0000.0001) %MON vort_a_mean                  =   1.4856000000000E-04
(PID.TID 0000.0001) %MON vort_a_sd                    =   1.5312918562496E-06
(PID.TID 0000.0001) %MON vort_p_mean                  =   1.5552375000000E-04
(PID.TID 0000.0001) %MON vort_p_sd                    =   5.5921473110222E-05
(PID.TID 0000.0001) %MON surfExpan_theta_mean         =   0.0000000000000E+00
(PID.TID 0000.0001) %MON surfExpan_salt_mean          =   1.3877787807814E-23
(PID.TID 0000.0001) // =======================================================
(PID.TID 0000.0001) // End MONITOR dynamic field statistics
(PID.TID 0000.0001) // =======================================================
(PID.TID 0000.0001) // =======================================================
(PID.TID 0000.0001) // Begin MONITOR SEAICE statistics
(PID.TID 0000.0001) // =======================================================
(PID.TID 0000.0001) %MON seaice_tsnumber              =                     6
(PID.TID 0000.0001) %MON seaice_time_sec              =   1.5000000000000E+01
(PID.TID 0000.0001) %MON seaice_uice_max              =   1.0426169947205E-02
(PID.TID 0000.0001) %MON seaice_uice_min              =  -1.0657019254035E-02
(PID.TID 0000.0001) %MON seaice_uice_mean             =  -2.4181692578928E-07
(PID.TID 0000.0001) %MON seaice_uice_sd               =   4.4869148332364E-03
(PID.TID 0000.0001) %MON seaice_uice_del2             =   1.3658709738877E-06
(PID.TID 0000.0001) %MON seaice_vice_max              =   1.0176591245911E-02
(PID.TID 0000.0001) %MON seaice_vice_min              =  -1.0306026259732E-02
(PID.TID 0000.0001) %MON seaice_vice_mean             =   1.1186658945019E-06
(PID.TID 0000.0001) %MON seaice_vice_sd               =   4.4649813992932E-03
(PID.TID 0000.0001) %MON seaice_vice_del2             =   1.3670859295670E-06
(PID.TID 0000.0001) %MON seaice_area_max              =   1.0000000000000E+00
(PID.TID 0000.0001) %MON seaice_area_min              =   9.9999856399812E-01
(PID.TID 0000.0001) %MON seaice_area_mean             =   9.9999991128991E-01
(PID.TID 0000.0001) %MON seaice_area_sd               =   1.9660665779347E-07
(PID.TID 0000.0001) %MON seaice_area_del2             =   1.9963627403203E-09
(PID.TID 0000.0001) %MON seaice_heff_max              =   3.0999864964082E-01
(PID.TID 0000.0001) %MON seaice_heff_min              =   2.9006054169452E-01
(PID.TID 0000.0001) %MON seaice_heff_mean             =   3.0067126525963E-01
(PID.TID 0000.0001) %MON seaice_heff_sd               =   5.0069230024961E-03
(PID.TID 0000.0001) %MON seaice_heff_del2             =   1.2853748154345E-05
(PID.TID 0000.0001) %MON seaice_hsnow_max             =   0.0000000000000E+00
(PID.TID 0000.0001) %MON seaice_hsnow_min             =   0.0000000000000E+00
(PID.TID 0000.0001) %MON seaice_hsnow_mean            =   0.0000000000000E+00
(PID.TID 0000.0001) %MON seaice_hsnow_sd              =   0.0000000000000E+00
(PID.TID 0000.0001) %MON seaice_hsnow_del2            =   0.0000000000000E+00
(PID.TID 0000.0001) // =======================================================
(PID.TID 0000.0001) // End MONITOR SEAICE statistics
(PID.TID 0000.0001) // =======================================================
 Computing Diagnostic #    163  SIuice       Counter:       1   Parms: UU      M1      
           Vector  Mate for  SIuice       Diagnostic #    164  SIvice   exists 
 Computing Diagnostic #    164  SIvice       Counter:       1   Parms: VV      M1      
           Vector  Mate for  SIvice       Diagnostic #    163  SIuice   exists 
 Computing Diagnostic #    149  SIheff       Counter:       1   Parms: SM      M1      
 Computing Diagnostic #    146  SIarea       Counter:       1   Parms: SM      M1      
 Computing Diagnostic #    228  SIshear      Counter:       1   Parms: SM      M1      
 Computing Diagnostic #    233  SIcohes      Counter:       1   Parms: SM      M1      
 Computing Diagnostic #    221  SIsig1       Counter:       1   Parms: SM      M1      
 Computing Diagnostic #    222  SIsig2       Counter:       1   Parms: SM      M1      
 Computing Diagnostic #    231  SIdamage     Counter:       1   Parms: SM      M1      
 Computing Diagnostic #    165  SItaux       Counter:       1   Parms: UU      U1      
           Vector  Mate for  SItaux       Diagnostic #    166  SItauy   exists 
 Computing Diagnostic #    166  SItauy       Counter:       1   Parms: VV      U1      
           Vector  Mate for  SItauy       Diagnostic #    165  SItaux   exists 
 Computing Diagnostic #    133  EXFuwind     Counter:       1   Parms: UM      U1      
 Computing Diagnostic #    134  EXFvwind     Counter:       1   Parms: VM      U1      
(PID.TID 0000.0001)  S/R SEAICE_KRYLOV: Picard iterate / total, KRYLOVgamma_lin, initial norm =       1    601 0.10000E+00 0.11155E+00
(PID.TID 0000.0001)  S/R SEAICE_KRYLOV: Picard iterate / total =      1 /    601, Nb. of FGMRES iterations =      1
(PID.TID 0000.0001)  S/R SEAICE_KRYLOV: Picard iterate / total, KRYLOVgamma_lin, initial norm =       2    602 0.50000E-01 0.26478E-03
(PID.TID 0000.0001)  S/R SEAICE_KRYLOV: Picard iterate / total =      2 /    602, Nb. of FGMRES iterations =      1
(PID.TID 0000.0001)  S/R SEAICE_KRYLOV: Picard iterate / total, KRYLOVgamma_lin, initial norm =       3    603 0.50000E-01 0.32470E-04
(PID.TID 0000.0001)  S/R SEAICE_KRYLOV: Picard iterate / total =      3 /    603, Nb. of FGMRES iterations =      1
(PID.TID 0000.0001)  S/R SEAICE_KRYLOV: Picard iterate / total, KRYLOVgamma_lin, initial norm =       4    604 0.33333E-01 0.23126E-04
(PID.TID 0000.0001)  S/R SEAICE_KRYLOV: Picard iterate / total =      4 /    604, Nb. of FGMRES iterations =      1
(PID.TID 0000.0001)  S/R SEAICE_KRYLOV: Picard iterate / total, KRYLOVgamma_lin, initial norm =       5    605 0.33333E-01 0.10964E-04
(PID.TID 0000.0001)  S/R SEAICE_KRYLOV: Picard iterate / total =      5 /    605, Nb. of FGMRES iterations =      1
(PID.TID 0000.0001)  S/R SEAICE_KRYLOV: Picard iterate / total, KRYLOVgamma_lin, initial norm =       6    606 0.33333E-01 0.55309E-05
(PID.TID 0000.0001)  S/R SEAICE_KRYLOV: Picard iterate / total =      6 /    606, Nb. of FGMRES iterations =      1
(PID.TID 0000.0001)  S/R SEAICE_KRYLOV: Picard iterate / total, KRYLOVgamma_lin, initial norm =       7    607 0.33333E-01 0.27614E-05
(PID.TID 0000.0001)  S/R SEAICE_KRYLOV: Picard iterate / total =      7 /    607, Nb. of FGMRES iterations =      1
(PID.TID 0000.0001)  S/R SEAICE_KRYLOV: Picard iterate / total, KRYLOVgamma_lin, initial norm =       8    608 0.25000E-01 0.13810E-05
(PID.TID 0000.0001)  S/R SEAICE_KRYLOV: Picard iterate / total =      8 /    608, Nb. of FGMRES iterations =      1
(PID.TID 0000.0001)  S/R SEAICE_KRYLOV: Picard iterate / total, KRYLOVgamma_lin, initial norm =       9    609 0.20000E-01 0.69049E-06
(PID.TID 0000.0001)  S/R SEAICE_KRYLOV: Picard iterate / total =      9 /    609, Nb. of FGMRES iterations =      1
(PID.TID 0000.0001)  S/R SEAICE_KRYLOV: Picard iterate / total, KRYLOVgamma_lin, initial norm =      10    610 0.12500E-01 0.34525E-06
(PID.TID 0000.0001)  S/R SEAICE_KRYLOV: Picard iterate / total =     10 /    610, Nb. of FGMRES iterations =      1
(PID.TID 0000.0001)  S/R SEAICE_KRYLOV: Picard iterate / total, KRYLOVgamma_lin, initial norm =      11    611 0.12500E-01 0.17262E-06
(PID.TID 0000.0001)  S/R SEAICE_KRYLOV: Picard iterate / total =     11 /    611, Nb. of FGMRES iterations =      1
(PID.TID 0000.0001)  S/R SEAICE_KRYLOV: Picard iterate / total, KRYLOVgamma_lin, initial norm =      12    612 0.12500E-01 0.86312E-07
(PID.TID 0000.0001)  S/R SEAICE_KRYLOV: Picard iterate / total =     12 /    612, Nb. of FGMRES iterations =      1
(PID.TID 0000.0001)  S/R SEAICE_KRYLOV: Picard iterate / total, KRYLOVgamma_lin, initial norm =      13    613 0.12500E-01 0.43156E-07
(PID.TID 0000.0001)  S/R SEAICE_KRYLOV: Picard iterate / total =     13 /    613, Nb. of FGMRES iterations =      1
(PID.TID 0000.0001)  S/R SEAICE_KRYLOV: Picard iterate / total, KRYLOVgamma_lin, initial norm =      14    614 0.12500E-01 0.21578E-07
(PID.TID 0000.0001)  S/R SEAICE_KRYLOV: Picard iterate / total =     14 /    614, Nb. of FGMRES iterations =      1
(PID.TID 0000.0001)  S/R SEAICE_KRYLOV: Picard iterate / total, KRYLOVgamma_lin, initial norm =      15    615 0.12500E-01 0.10789E-07
(PID.TID 0000.0001)  S/R SEAICE_KRYLOV: Picard iterate / total =     15 /    615, Nb. of FGMRES iterations =      1
(PID.TID 0000.0001)  S/R SEAICE_KRYLOV: Picard iterate / total, KRYLOVgamma_lin, initial norm =      16    616 0.12500E-01 0.53945E-08
(PID.TID 0000.0001)  S/R SEAICE_KRYLOV: Picard iterate / total =     16 /    616, Nb. of FGMRES iterations =      1
(PID.TID 0000.0001)  S/R SEAICE_KRYLOV: Picard iterate / total, KRYLOVgamma_lin, initial norm =      17    617 0.12500E-01 0.26973E-08
(PID.TID 0000.0001)  S/R SEAICE_KRYLOV: Picard iterate / total =     17 /    617, Nb. of FGMRES iterations =      1
(PID.TID 0000.0001)  S/R SEAICE_KRYLOV: Picard iterate / total, KRYLOVgamma_lin, initial norm =      18    618 0.12500E-01 0.13486E-08
(PID.TID 0000.0001)  S/R SEAICE_KRYLOV: Picard iterate / total =     18 /    618, Nb. of FGMRES iterations =      1
(PID.TID 0000.0001)  S/R SEAICE_KRYLOV: Picard iterate / total, KRYLOVgamma_lin, initial norm =      19    619 0.12500E-01 0.67431E-09
(PID.TID 0000.0001)  S/R SEAICE_KRYLOV: Picard iterate / total =     19 /    619, Nb. of FGMRES iterations =      1
(PID.TID 0000.0001)  S/R SEAICE_KRYLOV: Picard iterate / total, KRYLOVgamma_lin, initial norm =      20    620 0.12500E-01 0.33716E-09
(PID.TID 0000.0001)  S/R SEAICE_KRYLOV: Picard iterate / total =     20 /    620, Nb. of FGMRES iterations =      1
(PID.TID 0000.0001)  S/R SEAICE_KRYLOV: Picard iterate / total, KRYLOVgamma_lin, initial norm =      21    621 0.12500E-01 0.16858E-09
(PID.TID 0000.0001)  S/R SEAICE_KRYLOV: Picard iterate / total =     21 /    621, Nb. of FGMRES iterations =      1
(PID.TID 0000.0001)  S/R SEAICE_KRYLOV: Picard iterate / total, KRYLOVgamma_lin, initial norm =      22    622 0.12500E-01 0.84289E-10
(PID.TID 0000.0001)  S/R SEAICE_KRYLOV: Picard iterate / total =     22 /    622, Nb. of FGMRES iterations =      1
(PID.TID 0000.0001)  S/R SEAICE_KRYLOV: Picard iterate / total, KRYLOVgamma_lin, initial norm =      23    623 0.12500E-01 0.42145E-10
(PID.TID 0000.0001)  S/R SEAICE_KRYLOV: Picard iterate / total =     23 /    623, Nb. of FGMRES iterations =      1
(PID.TID 0000.0001)  S/R SEAICE_KRYLOV: Picard iterate / total, KRYLOVgamma_lin, initial norm =      24    624 0.12500E-01 0.21072E-10
(PID.TID 0000.0001)  S/R SEAICE_KRYLOV: Picard iterate / total =     24 /    624, Nb. of FGMRES iterations =      1
(PID.TID 0000.0001)  S/R SEAICE_KRYLOV: Picard iterate / total, KRYLOVgamma_lin, initial norm =      25    625 0.12500E-01 0.10536E-10
(PID.TID 0000.0001)  S/R SEAICE_KRYLOV: Picard iterate / total =     25 /    625, Nb. of FGMRES iterations =      1
(PID.TID 0000.0001)  S/R SEAICE_KRYLOV: Picard iterate / total, KRYLOVgamma_lin, initial norm =      26    626 0.12500E-01 0.52681E-11
(PID.TID 0000.0001)  S/R SEAICE_KRYLOV: Picard iterate / total =     26 /    626, Nb. of FGMRES iterations =      1
(PID.TID 0000.0001)  S/R SEAICE_KRYLOV: Picard iterate / total, KRYLOVgamma_lin, initial norm =      27    627 0.12500E-01 0.26340E-11
(PID.TID 0000.0001)  S/R SEAICE_KRYLOV: Picard iterate / total =     27 /    627, Nb. of FGMRES iterations =      1
(PID.TID 0000.0001)  S/R SEAICE_KRYLOV: Picard iterate / total, KRYLOVgamma_lin, initial norm =      28    628 0.12500E-01 0.13170E-11
(PID.TID 0000.0001)  S/R SEAICE_KRYLOV: Picard iterate / total =     28 /    628, Nb. of FGMRES iterations =      1
(PID.TID 0000.0001)  S/R SEAICE_KRYLOV: Picard iterate / total, KRYLOVgamma_lin, initial norm =      29    629 0.12500E-01 0.65851E-12
(PID.TID 0000.0001)  S/R SEAICE_KRYLOV: Picard iterate / total =     29 /    629, Nb. of FGMRES iterations =      1
(PID.TID 0000.0001)  S/R SEAICE_KRYLOV: Picard iterate / total, KRYLOVgamma_lin, initial norm =      30    630 0.12500E-01 0.32926E-12
(PID.TID 0000.0001)  S/R SEAICE_KRYLOV: Picard iterate / total =     30 /    630, Nb. of FGMRES iterations =      1
(PID.TID 0000.0001)  S/R SEAICE_KRYLOV: Picard iterate / total, KRYLOVgamma_lin, initial norm =      31    631 0.12500E-01 0.16463E-12
(PID.TID 0000.0001)  S/R SEAICE_KRYLOV: Picard iterate / total =     31 /    631, Nb. of FGMRES iterations =      1
(PID.TID 0000.0001)  S/R SEAICE_KRYLOV: Picard iterate / total, KRYLOVgamma_lin, final   norm =      32    632 0.12500E-01 0.82314E-13
(PID.TID 0000.0001)  // =======================================================
(PID.TID 0000.0001)  // Begin KRYLOV statistics
(PID.TID 0000.0001)  // =======================================================
(PID.TID 0000.0001)  %KRYLOV_MON: time step              =          7
(PID.TID 0000.0001)  %KRYLOV_MON: Nb. of time steps      =          1
(PID.TID 0000.0001)  %KRYLOV_MON: Nb. of Picard steps    =         32
(PID.TID 0000.0001)  %KRYLOV_MON: Nb. of Krylov steps    =         31
(PID.TID 0000.0001)  %KRYLOV_MON: Nb. of Picard failures =          0
(PID.TID 0000.0001)  %KRYLOV_MON: Nb. of Krylov failures =          0
(PID.TID 0000.0001)  // =======================================================
(PID.TID 0000.0001)  // End KRYLOV statistics
(PID.TID 0000.0001)  // =======================================================
(PID.TID 0000.0001)  S/R SEAICE_KRYLOV: Total number FGMRES iterations =     31 in timestep          7
(PID.TID 0000.0001) // =======================================================
(PID.TID 0000.0001) // Begin MONITOR dynamic field statistics
(PID.TID 0000.0001) // =======================================================
(PID.TID 0000.0001) %MON time_tsnumber                =                     7
(PID.TID 0000.0001) %MON time_secondsf                =   1.7500000000000E+01
(PID.TID 0000.0001) %MON dynstat_eta_max              =   0.0000000000000E+00
(PID.TID 0000.0001) %MON dynstat_eta_min              =   0.0000000000000E+00
(PID.TID 0000.0001) %MON dynstat_eta_mean             =   0.0000000000000E+00
(PID.TID 0000.0001) %MON dynstat_eta_sd               =   0.0000000000000E+00
(PID.TID 0000.0001) %MON dynstat_eta_del2             =   0.0000000000000E+00
(PID.TID 0000.0001) %MON dynstat_uvel_max             =   9.8437500000000E-03
(PID.TID 0000.0001) %MON dynstat_uvel_min             =  -9.8437500000000E-03
(PID.TID 0000.0001) %MON dynstat_uvel_mean            =   0.0000000000000E+00
(PID.TID 0000.0001) %MON dynstat_uvel_sd              =   5.7727978755972E-03
(PID.TID 0000.0001) %MON dynstat_uvel_del2            =   1.0089048364799E-20
(PID.TID 0000.0001) %MON dynstat_vvel_max             =   9.8437500000000E-03
(PID.TID 0000.0001) %MON dynstat_vvel_min             =  -9.8437500000000E-03
(PID.TID 0000.0001) %MON dynstat_vvel_mean            =   0.0000000000000E+00
(PID.TID 0000.0001) %MON dynstat_vvel_sd              =   5.7727978755972E-03
(PID.TID 0000.0001) %MON dynstat_vvel_del2            =   1.0089048364799E-20
(PID.TID 0000.0001) %MON dynstat_wvel_max             =   1.1914062500000E-05
(PID.TID 0000.0001) %MON dynstat_wvel_min             =  -1.1914062500000E-05
(PID.TID 0000.0001) %MON dynstat_wvel_mean            =   3.4694469519536E-25
(PID.TID 0000.0001) %MON dynstat_wvel_sd              =   1.7200872247780E-06
(PID.TID 0000.0001) %MON dynstat_wvel_del2            =   2.8187489626940E-08
(PID.TID 0000.0001) %MON dynstat_theta_max            =  -1.6200000000000E+00
(PID.TID 0000.0001) %MON dynstat_theta_min            =  -1.6200000000000E+00
(PID.TID 0000.0001) %MON dynstat_theta_mean           =  -1.6200000000000E+00
(PID.TID 0000.0001) %MON dynstat_theta_sd             =   0.0000000000000E+00
(PID.TID 0000.0001) %MON dynstat_theta_del2           =   0.0000000000000E+00
(PID.TID 0000.0001) %MON dynstat_salt_max             =   3.0000000000000E+01
(PID.TID 0000.0001) %MON dynstat_salt_min             =   3.0000000000000E+01
(PID.TID 0000.0001) %MON dynstat_salt_mean            =   3.0000000000000E+01
(PID.TID 0000.0001) %MON dynstat_salt_sd              =   0.0000000000000E+00
(PID.TID 0000.0001) %MON dynstat_salt_del2            =   0.0000000000000E+00
(PID.TID 0000.0001) %MON trAdv_CFL_u_max              =   3.0761718750000E-06
(PID.TID 0000.0001) %MON trAdv_CFL_v_max              =   3.0761718750000E-06
(PID.TID 0000.0001) %MON trAdv_CFL_w_max              =   2.9785156250000E-06
(PID.TID 0000.0001) %MON advcfl_uvel_max              =   3.0761718750000E-06
(PID.TID 0000.0001) %MON advcfl_vvel_max              =   3.0761718750000E-06
(PID.TID 0000.0001) %MON advcfl_wvel_max              =   5.9570312500000E-06
(PID.TID 0000.0001) %MON advcfl_W_hf_max              =   0.0000000000000E+00
(PID.TID 0000.0001) %MON pe_b_mean                    =   0.0000000000000E+00
(PID.TID 0000.0001) %MON ke_max                       =   9.0844726562500E-05
(PID.TID 0000.0001) %MON ke_mean                      =   3.2804489135742E-05
(PID.TID 0000.0001) %MON ke_vol                       =   2.6214400000000E+12
(PID.TID 0000.0001) %MON vort_r_min                   =  -7.8125000000000E-08
(PID.TID 0000.0001) %MON vort_r_max                   =   1.2304687500000E-06
(PID.TID 0000.0001) %MON vort_a_mean                  =   1.4856000000000E-04
(PID.TID 0000.0001) %MON vort_a_sd                    =   1.5312918562496E-06
(PID.TID 0000.0001) %MON vort_p_mean                  =   1.5552375000000E-04
(PID.TID 0000.0001) %MON vort_p_sd                    =   5.5921473110222E-05
(PID.TID 0000.0001) %MON surfExpan_theta_mean         =   0.0000000000000E+00
(PID.TID 0000.0001) %MON surfExpan_salt_mean          =   1.3877787807814E-23
(PID.TID 0000.0001) // =======================================================
(PID.TID 0000.0001) // End MONITOR dynamic field statistics
(PID.TID 0000.0001) // =======================================================
(PID.TID 0000.0001) // =======================================================
(PID.TID 0000.0001) // Begin MONITOR SEAICE statistics
(PID.TID 0000.0001) // =======================================================
(PID.TID 0000.0001) %MON seaice_tsnumber              =                     7
(PID.TID 0000.0001) %MON seaice_time_sec              =   1.7500000000000E+01
(PID.TID 0000.0001) %MON seaice_uice_max              =   1.2135478100454E-02
(PID.TID 0000.0001) %MON seaice_uice_min              =  -1.2396702500448E-02
(PID.TID 0000.0001) %MON seaice_uice_mean             =  -2.8229114535888E-07
(PID.TID 0000.0001) %MON seaice_uice_sd               =   5.2242780888030E-03
(PID.TID 0000.0001) %MON seaice_uice_del2             =   1.6035802589192E-06
(PID.TID 0000.0001) %MON seaice_vice_max              =   1.1847297569685E-02
(PID.TID 0000.0001) %MON seaice_vice_min              =  -1.1994656002129E-02
(PID.TID 0000.0001) %MON seaice_vice_mean             =   1.3115817304621E-06
(PID.TID 0000.0001) %MON seaice_vice_sd               =   5.1988608671729E-03
(PID.TID 0000.0001) %MON seaice_vice_del2             =   1.6056520748872E-06
(PID.TID 0000.0001) %MON seaice_area_max              =   1.0000000000000E+00
(PID.TID 0000.0001) %MON seaice_area_min              =   9.9999809280380E-01
(PID.TID 0000.0001) %MON seaice_area_mean             =   9.9999988210139E-01
(PID.TID 0000.0001) %MON seaice_area_sd               =   2.5967997830625E-07
(PID.TID 0000.0001) %MON seaice_area_del2             =   2.6874177207681E-09
(PID.TID 0000.0001) %MON seaice_heff_max              =   3.0999864189388E-01
(PID.TID 0000.0001) %MON seaice_heff_min              =   2.9006053372573E-01
(PID.TID 0000.0001) %MON seaice_heff_mean             =   3.0067126525963E-01
(PID.TID 0000.0001) %MON seaice_heff_sd               =   5.0069231517778E-03
(PID.TID 0000.0001) %MON seaice_heff_del2             =   1.2853747965787E-05
(PID.TID 0000.0001) %MON seaice_hsnow_max             =   0.0000000000000E+00
(PID.TID 0000.0001) %MON seaice_hsnow_min             =   0.0000000000000E+00
(PID.TID 0000.0001) %MON seaice_hsnow_mean            =   0.0000000000000E+00
(PID.TID 0000.0001) %MON seaice_hsnow_sd              =   0.0000000000000E+00
(PID.TID 0000.0001) %MON seaice_hsnow_del2            =   0.0000000000000E+00
(PID.TID 0000.0001) // =======================================================
(PID.TID 0000.0001) // End MONITOR SEAICE statistics
(PID.TID 0000.0001) // =======================================================
 Computing Diagnostic #    163  SIuice       Counter:       1   Parms: UU      M1      
           Vector  Mate for  SIuice       Diagnostic #    164  SIvice   exists 
 Computing Diagnostic #    164  SIvice       Counter:       1   Parms: VV      M1      
           Vector  Mate for  SIvice       Diagnostic #    163  SIuice   exists 
 Computing Diagnostic #    149  SIheff       Counter:       1   Parms: SM      M1      
 Computing Diagnostic #    146  SIarea       Counter:       1   Parms: SM      M1      
 Computing Diagnostic #    228  SIshear      Counter:       1   Parms: SM      M1      
 Computing Diagnostic #    233  SIcohes      Counter:       1   Parms: SM      M1      
 Computing Diagnostic #    221  SIsig1       Counter:       1   Parms: SM      M1      
 Computing Diagnostic #    222  SIsig2       Counter:       1   Parms: SM      M1      
 Computing Diagnostic #    231  SIdamage     Counter:       1   Parms: SM      M1      
 Computing Diagnostic #    165  SItaux       Counter:       1   Parms: UU      U1      
           Vector  Mate for  SItaux       Diagnostic #    166  SItauy   exists 
 Computing Diagnostic #    166  SItauy       Counter:       1   Parms: VV      U1      
           Vector  Mate for  SItauy       Diagnostic #    165  SItaux   exists 
 Computing Diagnostic #    133  EXFuwind     Counter:       1   Parms: UM      U1      
 Computing Diagnostic #    134  EXFvwind     Counter:       1   Parms: VM      U1      
(PID.TID 0000.0001)  S/R SEAICE_KRYLOV: Picard iterate / total, KRYLOVgamma_lin, initial norm =       1    701 0.10000E+00 0.11107E+00
(PID.TID 0000.0001)  S/R SEAICE_KRYLOV: Picard iterate / total =      1 /    701, Nb. of FGMRES iterations =      1
(PID.TID 0000.0001)  S/R SEAICE_KRYLOV: Picard iterate / total, KRYLOVgamma_lin, initial norm =       2    702 0.50000E-01 0.25434E-03
(PID.TID 0000.0001)  S/R SEAICE_KRYLOV: Picard iterate / total =      2 /    702, Nb. of FGMRES iterations =      1
(PID.TID 0000.0001)  S/R SEAICE_KRYLOV: Picard iterate / total, KRYLOVgamma_lin, initial norm =       3    703 0.50000E-01 0.32467E-04
(PID.TID 0000.0001)  S/R SEAICE_KRYLOV: Picard iterate / total =      3 /    703, Nb. of FGMRES iterations =      1
(PID.TID 0000.0001)  S/R SEAICE_KRYLOV: Picard iterate / total, KRYLOVgamma_lin, initial norm =       4    704 0.33333E-01 0.22707E-04
(PID.TID 0000.0001)  S/R SEAICE_KRYLOV: Picard iterate / total =      4 /    704, Nb. of FGMRES iterations =      1
(PID.TID 0000.0001)  S/R SEAICE_KRYLOV: Picard iterate / total, KRYLOVgamma_lin, initial norm =       5    705 0.33333E-01 0.10768E-04
(PID.TID 0000.0001)  S/R SEAICE_KRYLOV: Picard iterate / total =      5 /    705, Nb. of FGMRES iterations =      1
(PID.TID 0000.0001)  S/R SEAICE_KRYLOV: Picard iterate / total, KRYLOVgamma_lin, initial norm =       6    706 0.33333E-01 0.54324E-05
(PID.TID 0000.0001)  S/R SEAICE_KRYLOV: Picard iterate / total =      6 /    706, Nb. of FGMRES iterations =      1
(PID.TID 0000.0001)  S/R SEAICE_KRYLOV: Picard iterate / total, KRYLOVgamma_lin, initial norm =       7    707 0.33333E-01 0.27122E-05
(PID.TID 0000.0001)  S/R SEAICE_KRYLOV: Picard iterate / total =      7 /    707, Nb. of FGMRES iterations =      1
(PID.TID 0000.0001)  S/R SEAICE_KRYLOV: Picard iterate / total, KRYLOVgamma_lin, initial norm =       8    708 0.25000E-01 0.13564E-05
(PID.TID 0000.0001)  S/R SEAICE_KRYLOV: Picard iterate / total =      8 /    708, Nb. of FGMRES iterations =      1
(PID.TID 0000.0001)  S/R SEAICE_KRYLOV: Picard iterate / total, KRYLOVgamma_lin, initial norm =       9    709 0.20000E-01 0.67818E-06
(PID.TID 0000.0001)  S/R SEAICE_KRYLOV: Picard iterate / total =      9 /    709, Nb. of FGMRES iterations =      1
(PID.TID 0000.0001)  S/R SEAICE_KRYLOV: Picard iterate / total, KRYLOVgamma_lin, initial norm =      10    710 0.12500E-01 0.33909E-06
(PID.TID 0000.0001)  S/R SEAICE_KRYLOV: Picard iterate / total =     10 /    710, Nb. of FGMRES iterations =      1
(PID.TID 0000.0001)  S/R SEAICE_KRYLOV: Picard iterate / total, KRYLOVgamma_lin, initial norm =      11    711 0.12500E-01 0.16955E-06
(PID.TID 0000.0001)  S/R SEAICE_KRYLOV: Picard iterate / total =     11 /    711, Nb. of FGMRES iterations =      1
(PID.TID 0000.0001)  S/R SEAICE_KRYLOV: Picard iterate / total, KRYLOVgamma_lin, initial norm =      12    712 0.12500E-01 0.84773E-07
(PID.TID 0000.0001)  S/R SEAICE_KRYLOV: Picard iterate / total =     12 /    712, Nb. of FGMRES iterations =      1
(PID.TID 0000.0001)  S/R SEAICE_KRYLOV: Picard iterate / total, KRYLOVgamma_lin, initial norm =      13    713 0.12500E-01 0.42387E-07
(PID.TID 0000.0001)  S/R SEAICE_KRYLOV: Picard iterate / total =     13 /    713, Nb. of FGMRES iterations =      1
(PID.TID 0000.0001)  S/R SEAICE_KRYLOV: Picard iterate / total, KRYLOVgamma_lin, initial norm =      14    714 0.12500E-01 0.21193E-07
(PID.TID 0000.0001)  S/R SEAICE_KRYLOV: Picard iterate / total =     14 /    714, Nb. of FGMRES iterations =      1
(PID.TID 0000.0001)  S/R SEAICE_KRYLOV: Picard iterate / total, KRYLOVgamma_lin, initial norm =      15    715 0.12500E-01 0.10597E-07
(PID.TID 0000.0001)  S/R SEAICE_KRYLOV: Picard iterate / total =     15 /    715, Nb. of FGMRES iterations =      1
(PID.TID 0000.0001)  S/R SEAICE_KRYLOV: Picard iterate / total, KRYLOVgamma_lin, initial norm =      16    716 0.12500E-01 0.52983E-08
(PID.TID 0000.0001)  S/R SEAICE_KRYLOV: Picard iterate / total =     16 /    716, Nb. of FGMRES iterations =      1
(PID.TID 0000.0001)  S/R SEAICE_KRYLOV: Picard iterate / total, KRYLOVgamma_lin, initial norm =      17    717 0.12500E-01 0.26492E-08
(PID.TID 0000.0001)  S/R SEAICE_KRYLOV: Picard iterate / total =     17 /    717, Nb. of FGMRES iterations =      1
(PID.TID 0000.0001)  S/R SEAICE_KRYLOV: Picard iterate / total, KRYLOVgamma_lin, initial norm =      18    718 0.12500E-01 0.13246E-08
(PID.TID 0000.0001)  S/R SEAICE_KRYLOV: Picard iterate / total =     18 /    718, Nb. of FGMRES iterations =      1
(PID.TID 0000.0001)  S/R SEAICE_KRYLOV: Picard iterate / total, KRYLOVgamma_lin, initial norm =      19    719 0.12500E-01 0.66229E-09
(PID.TID 0000.0001)  S/R SEAICE_KRYLOV: Picard iterate / total =     19 /    719, Nb. of FGMRES iterations =      1
(PID.TID 0000.0001)  S/R SEAICE_KRYLOV: Picard iterate / total, KRYLOVgamma_lin, initial norm =      20    720 0.12500E-01 0.33115E-09
(PID.TID 0000.0001)  S/R SEAICE_KRYLOV: Picard iterate / total =     20 /    720, Nb. of FGMRES iterations =      1
(PID.TID 0000.0001)  S/R SEAICE_KRYLOV: Picard iterate / total, KRYLOVgamma_lin, initial norm =      21    721 0.12500E-01 0.16557E-09
(PID.TID 0000.0001)  S/R SEAICE_KRYLOV: Picard iterate / total =     21 /    721, Nb. of FGMRES iterations =      1
(PID.TID 0000.0001)  S/R SEAICE_KRYLOV: Picard iterate / total, KRYLOVgamma_lin, initial norm =      22    722 0.12500E-01 0.82787E-10
(PID.TID 0000.0001)  S/R SEAICE_KRYLOV: Picard iterate / total =     22 /    722, Nb. of FGMRES iterations =      1
(PID.TID 0000.0001)  S/R SEAICE_KRYLOV: Picard iterate / total, KRYLOVgamma_lin, initial norm =      23    723 0.12500E-01 0.41393E-10
(PID.TID 0000.0001)  S/R SEAICE_KRYLOV: Picard iterate / total =     23 /    723, Nb. of FGMRES iterations =      1
(PID.TID 0000.0001)  S/R SEAICE_KRYLOV: Picard iterate / total, KRYLOVgamma_lin, initial norm =      24    724 0.12500E-01 0.20697E-10
(PID.TID 0000.0001)  S/R SEAICE_KRYLOV: Picard iterate / total =     24 /    724, Nb. of FGMRES iterations =      1
(PID.TID 0000.0001)  S/R SEAICE_KRYLOV: Picard iterate / total, KRYLOVgamma_lin, initial norm =      25    725 0.12500E-01 0.10348E-10
(PID.TID 0000.0001)  S/R SEAICE_KRYLOV: Picard iterate / total =     25 /    725, Nb. of FGMRES iterations =      1
(PID.TID 0000.0001)  S/R SEAICE_KRYLOV: Picard iterate / total, KRYLOVgamma_lin, initial norm =      26    726 0.12500E-01 0.51742E-11
(PID.TID 0000.0001)  S/R SEAICE_KRYLOV: Picard iterate / total =     26 /    726, Nb. of FGMRES iterations =      1
(PID.TID 0000.0001)  S/R SEAICE_KRYLOV: Picard iterate / total, KRYLOVgamma_lin, initial norm =      27    727 0.12500E-01 0.25871E-11
(PID.TID 0000.0001)  S/R SEAICE_KRYLOV: Picard iterate / total =     27 /    727, Nb. of FGMRES iterations =      1
(PID.TID 0000.0001)  S/R SEAICE_KRYLOV: Picard iterate / total, KRYLOVgamma_lin, initial norm =      28    728 0.12500E-01 0.12935E-11
(PID.TID 0000.0001)  S/R SEAICE_KRYLOV: Picard iterate / total =     28 /    728, Nb. of FGMRES iterations =      1
(PID.TID 0000.0001)  S/R SEAICE_KRYLOV: Picard iterate / total, KRYLOVgamma_lin, initial norm =      29    729 0.12500E-01 0.64677E-12
(PID.TID 0000.0001)  S/R SEAICE_KRYLOV: Picard iterate / total =     29 /    729, Nb. of FGMRES iterations =      1
(PID.TID 0000.0001)  S/R SEAICE_KRYLOV: Picard iterate / total, KRYLOVgamma_lin, initial norm =      30    730 0.12500E-01 0.32339E-12
(PID.TID 0000.0001)  S/R SEAICE_KRYLOV: Picard iterate / total =     30 /    730, Nb. of FGMRES iterations =      1
(PID.TID 0000.0001)  S/R SEAICE_KRYLOV: Picard iterate / total, KRYLOVgamma_lin, initial norm =      31    731 0.12500E-01 0.16169E-12
(PID.TID 0000.0001)  S/R SEAICE_KRYLOV: Picard iterate / total =     31 /    731, Nb. of FGMRES iterations =      1
(PID.TID 0000.0001)  S/R SEAICE_KRYLOV: Picard iterate / total, KRYLOVgamma_lin, final   norm =      32    732 0.12500E-01 0.80847E-13
(PID.TID 0000.0001)  // =======================================================
(PID.TID 0000.0001)  // Begin KRYLOV statistics
(PID.TID 0000.0001)  // =======================================================
(PID.TID 0000.0001)  %KRYLOV_MON: time step              =          8
(PID.TID 0000.0001)  %KRYLOV_MON: Nb. of time steps      =          1
(PID.TID 0000.0001)  %KRYLOV_MON: Nb. of Picard steps    =         32
(PID.TID 0000.0001)  %KRYLOV_MON: Nb. of Krylov steps    =         31
(PID.TID 0000.0001)  %KRYLOV_MON: Nb. of Picard failures =          0
(PID.TID 0000.0001)  %KRYLOV_MON: Nb. of Krylov failures =          0
(PID.TID 0000.0001)  // =======================================================
(PID.TID 0000.0001)  // End KRYLOV statistics
(PID.TID 0000.0001)  // =======================================================
(PID.TID 0000.0001)  S/R SEAICE_KRYLOV: Total number FGMRES iterations =     31 in timestep          8
(PID.TID 0000.0001) // =======================================================
(PID.TID 0000.0001) // Begin MONITOR dynamic field statistics
(PID.TID 0000.0001) // =======================================================
(PID.TID 0000.0001) %MON time_tsnumber                =                     8
(PID.TID 0000.0001) %MON time_secondsf                =   2.0000000000000E+01
(PID.TID 0000.0001) %MON dynstat_eta_max              =   0.0000000000000E+00
(PID.TID 0000.0001) %MON dynstat_eta_min              =   0.0000000000000E+00
(PID.TID 0000.0001) %MON dynstat_eta_mean             =   0.0000000000000E+00
(PID.TID 0000.0001) %MON dynstat_eta_sd               =   0.0000000000000E+00
(PID.TID 0000.0001) %MON dynstat_eta_del2             =   0.0000000000000E+00
(PID.TID 0000.0001) %MON dynstat_uvel_max             =   9.8437500000000E-03
(PID.TID 0000.0001) %MON dynstat_uvel_min             =  -9.8437500000000E-03
(PID.TID 0000.0001) %MON dynstat_uvel_mean            =   0.0000000000000E+00
(PID.TID 0000.0001) %MON dynstat_uvel_sd              =   5.7727978755972E-03
(PID.TID 0000.0001) %MON dynstat_uvel_del2            =   1.0089048364799E-20
(PID.TID 0000.0001) %MON dynstat_vvel_max             =   9.8437500000000E-03
(PID.TID 0000.0001) %MON dynstat_vvel_min             =  -9.8437500000000E-03
(PID.TID 0000.0001) %MON dynstat_vvel_mean            =   0.0000000000000E+00
(PID.TID 0000.0001) %MON dynstat_vvel_sd              =   5.7727978755972E-03
(PID.TID 0000.0001) %MON dynstat_vvel_del2            =   1.0089048364799E-20
(PID.TID 0000.0001) %MON dynstat_wvel_max             =   1.1914062500000E-05
(PID.TID 0000.0001) %MON dynstat_wvel_min             =  -1.1914062500000E-05
(PID.TID 0000.0001) %MON dynstat_wvel_mean            =   3.4694469519536E-25
(PID.TID 0000.0001) %MON dynstat_wvel_sd              =   1.7200872247780E-06
(PID.TID 0000.0001) %MON dynstat_wvel_del2            =   2.8187489626940E-08
(PID.TID 0000.0001) %MON dynstat_theta_max            =  -1.6200000000000E+00
(PID.TID 0000.0001) %MON dynstat_theta_min            =  -1.6200000000000E+00
(PID.TID 0000.0001) %MON dynstat_theta_mean           =  -1.6200000000000E+00
(PID.TID 0000.0001) %MON dynstat_theta_sd             =   0.0000000000000E+00
(PID.TID 0000.0001) %MON dynstat_theta_del2           =   0.0000000000000E+00
(PID.TID 0000.0001) %MON dynstat_salt_max             =   3.0000000000000E+01
(PID.TID 0000.0001) %MON dynstat_salt_min             =   3.0000000000000E+01
(PID.TID 0000.0001) %MON dynstat_salt_mean            =   3.0000000000000E+01
(PID.TID 0000.0001) %MON dynstat_salt_sd              =   0.0000000000000E+00
(PID.TID 0000.0001) %MON dynstat_salt_del2            =   0.0000000000000E+00
(PID.TID 0000.0001) %MON trAdv_CFL_u_max              =   3.0761718750000E-06
(PID.TID 0000.0001) %MON trAdv_CFL_v_max              =   3.0761718750000E-06
(PID.TID 0000.0001) %MON trAdv_CFL_w_max              =   2.9785156250000E-06
(PID.TID 0000.0001) %MON advcfl_uvel_max              =   3.0761718750000E-06
(PID.TID 0000.0001) %MON advcfl_vvel_max              =   3.0761718750000E-06
(PID.TID 0000.0001) %MON advcfl_wvel_max              =   5.9570312500000E-06
(PID.TID 0000.0001) %MON advcfl_W_hf_max              =   0.0000000000000E+00
(PID.TID 0000.0001) %MON pe_b_mean                    =   0.0000000000000E+00
(PID.TID 0000.0001) %MON ke_max                       =   9.0844726562500E-05
(PID.TID 0000.0001) %MON ke_mean                      =   3.2804489135742E-05
(PID.TID 0000.0001) %MON ke_vol                       =   2.6214400000000E+12
(PID.TID 0000.0001) %MON vort_r_min                   =  -7.8125000000000E-08
(PID.TID 0000.0001) %MON vort_r_max                   =   1.2304687500000E-06
(PID.TID 0000.0001) %MON vort_a_mean                  =   1.4856000000000E-04
(PID.TID 0000.0001) %MON vort_a_sd                    =   1.5312918562496E-06
(PID.TID 0000.0001) %MON vort_p_mean                  =   1.5552375000000E-04
(PID.TID 0000.0001) %MON vort_p_sd                    =   5.5921473110222E-05
(PID.TID 0000.0001) %MON surfExpan_theta_mean         =   0.0000000000000E+00
(PID.TID 0000.0001) %MON surfExpan_salt_mean          =   1.3877787807814E-23
(PID.TID 0000.0001) // =======================================================
(PID.TID 0000.0001) // End MONITOR dynamic field statistics
(PID.TID 0000.0001) // =======================================================
(PID.TID 0000.0001) // =======================================================
(PID.TID 0000.0001) // Begin MONITOR SEAICE statistics
(PID.TID 0000.0001) // =======================================================
(PID.TID 0000.0001) %MON seaice_tsnumber              =                     8
(PID.TID 0000.0001) %MON seaice_time_sec              =   2.0000000000000E+01
(PID.TID 0000.0001) %MON seaice_uice_max              =   1.3834677110955E-02
(PID.TID 0000.0001) %MON seaice_uice_min              =  -1.4123377688696E-02
(PID.TID 0000.0001) %MON seaice_uice_mean             =  -3.2026056293236E-07
(PID.TID 0000.0001) %MON seaice_uice_sd               =   5.9584981190198E-03
(PID.TID 0000.0001) %MON seaice_uice_del2             =   1.8315905532941E-06
(PID.TID 0000.0001) %MON seaice_vice_max              =   1.3509109085805E-02
(PID.TID 0000.0001) %MON seaice_vice_min              =  -1.3672886773471E-02
(PID.TID 0000.0001) %MON seaice_vice_mean             =   1.5069311554682E-06
(PID.TID 0000.0001) %MON seaice_vice_sd               =   5.9296571993914E-03
(PID.TID 0000.0001) %MON seaice_vice_del2             =   1.8345677559035E-06
(PID.TID 0000.0001) %MON seaice_area_max              =   1.0000000000000E+00
(PID.TID 0000.0001) %MON seaice_area_min              =   9.9999754599276E-01
(PID.TID 0000.0001) %MON seaice_area_mean             =   9.9999984892663E-01
(PID.TID 0000.0001) %MON seaice_area_sd               =   3.3259105021591E-07
(PID.TID 0000.0001) %MON seaice_area_del2             =   3.5725342340206E-09
(PID.TID 0000.0001) %MON seaice_heff_max              =   3.0999863307130E-01
(PID.TID 0000.0001) %MON seaice_heff_min              =   2.9006052470141E-01
(PID.TID 0000.0001) %MON seaice_heff_mean             =   3.0067126525963E-01
(PID.TID 0000.0001) %MON seaice_heff_sd               =   5.0069233129808E-03
(PID.TID 0000.0001) %MON seaice_heff_del2             =   1.2853747429801E-05
(PID.TID 0000.0001) %MON seaice_hsnow_max             =   0.0000000000000E+00
(PID.TID 0000.0001) %MON seaice_hsnow_min             =   0.0000000000000E+00
(PID.TID 0000.0001) %MON seaice_hsnow_mean            =   0.0000000000000E+00
(PID.TID 0000.0001) %MON seaice_hsnow_sd              =   0.0000000000000E+00
(PID.TID 0000.0001) %MON seaice_hsnow_del2            =   0.0000000000000E+00
(PID.TID 0000.0001) // =======================================================
(PID.TID 0000.0001) // End MONITOR SEAICE statistics
(PID.TID 0000.0001) // =======================================================
 Computing Diagnostic #    163  SIuice       Counter:       1   Parms: UU      M1      
           Vector  Mate for  SIuice       Diagnostic #    164  SIvice   exists 
 Computing Diagnostic #    164  SIvice       Counter:       1   Parms: VV      M1      
           Vector  Mate for  SIvice       Diagnostic #    163  SIuice   exists 
 Computing Diagnostic #    149  SIheff       Counter:       1   Parms: SM      M1      
 Computing Diagnostic #    146  SIarea       Counter:       1   Parms: SM      M1      
 Computing Diagnostic #    228  SIshear      Counter:       1   Parms: SM      M1      
 Computing Diagnostic #    233  SIcohes      Counter:       1   Parms: SM      M1      
 Computing Diagnostic #    221  SIsig1       Counter:       1   Parms: SM      M1      
 Computing Diagnostic #    222  SIsig2       Counter:       1   Parms: SM      M1      
 Computing Diagnostic #    231  SIdamage     Counter:       1   Parms: SM      M1      
 Computing Diagnostic #    165  SItaux       Counter:       1   Parms: UU      U1      
           Vector  Mate for  SItaux       Diagnostic #    166  SItauy   exists 
 Computing Diagnostic #    166  SItauy       Counter:       1   Parms: VV      U1      
           Vector  Mate for  SItauy       Diagnostic #    165  SItaux   exists 
 Computing Diagnostic #    133  EXFuwind     Counter:       1   Parms: UM      U1      
 Computing Diagnostic #    134  EXFvwind     Counter:       1   Parms: VM      U1      
(PID.TID 0000.0001)  S/R SEAICE_KRYLOV: Picard iterate / total, KRYLOVgamma_lin, initial norm =       1    801 0.10000E+00 0.11066E+00
(PID.TID 0000.0001)  S/R SEAICE_KRYLOV: Picard iterate / total =      1 /    801, Nb. of FGMRES iterations =      1
(PID.TID 0000.0001)  S/R SEAICE_KRYLOV: Picard iterate / total, KRYLOVgamma_lin, initial norm =       2    802 0.50000E-01 0.23799E-03
(PID.TID 0000.0001)  S/R SEAICE_KRYLOV: Picard iterate / total =      2 /    802, Nb. of FGMRES iterations =      1
(PID.TID 0000.0001)  S/R SEAICE_KRYLOV: Picard iterate / total, KRYLOVgamma_lin, initial norm =       3    803 0.50000E-01 0.27371E-04
(PID.TID 0000.0001)  S/R SEAICE_KRYLOV: Picard iterate / total =      3 /    803, Nb. of FGMRES iterations =      1
(PID.TID 0000.0001)  S/R SEAICE_KRYLOV: Picard iterate / total, KRYLOVgamma_lin, initial norm =       4    804 0.33333E-01 0.19859E-04
(PID.TID 0000.0001)  S/R SEAICE_KRYLOV: Picard iterate / total =      4 /    804, Nb. of FGMRES iterations =      1
(PID.TID 0000.0001)  S/R SEAICE_KRYLOV: Picard iterate / total, KRYLOVgamma_lin, initial norm =       5    805 0.33333E-01 0.93670E-05
(PID.TID 0000.0001)  S/R SEAICE_KRYLOV: Picard iterate / total =      5 /    805, Nb. of FGMRES iterations =      1
(PID.TID 0000.0001)  S/R SEAICE_KRYLOV: Picard iterate / total, KRYLOVgamma_lin, initial norm =       6    806 0.33333E-01 0.47297E-05
(PID.TID 0000.0001)  S/R SEAICE_KRYLOV: Picard iterate / total =      6 /    806, Nb. of FGMRES iterations =      1
(PID.TID 0000.0001)  S/R SEAICE_KRYLOV: Picard iterate / total, KRYLOVgamma_lin, initial norm =       7    807 0.33333E-01 0.23610E-05
(PID.TID 0000.0001)  S/R SEAICE_KRYLOV: Picard iterate / total =      7 /    807, Nb. of FGMRES iterations =      1
(PID.TID 0000.0001)  S/R SEAICE_KRYLOV: Picard iterate / total, KRYLOVgamma_lin, initial norm =       8    808 0.25000E-01 0.11808E-05
(PID.TID 0000.0001)  S/R SEAICE_KRYLOV: Picard iterate / total =      8 /    808, Nb. of FGMRES iterations =      1
(PID.TID 0000.0001)  S/R SEAICE_KRYLOV: Picard iterate / total, KRYLOVgamma_lin, initial norm =       9    809 0.20000E-01 0.59039E-06
(PID.TID 0000.0001)  S/R SEAICE_KRYLOV: Picard iterate / total =      9 /    809, Nb. of FGMRES iterations =      1
(PID.TID 0000.0001)  S/R SEAICE_KRYLOV: Picard iterate / total, KRYLOVgamma_lin, initial norm =      10    810 0.12500E-01 0.29520E-06
(PID.TID 0000.0001)  S/R SEAICE_KRYLOV: Picard iterate / total =     10 /    810, Nb. of FGMRES iterations =      1
(PID.TID 0000.0001)  S/R SEAICE_KRYLOV: Picard iterate / total, KRYLOVgamma_lin, initial norm =      11    811 0.12500E-01 0.14760E-06
(PID.TID 0000.0001)  S/R SEAICE_KRYLOV: Picard iterate / total =     11 /    811, Nb. of FGMRES iterations =      1
(PID.TID 0000.0001)  S/R SEAICE_KRYLOV: Picard iterate / total, KRYLOVgamma_lin, initial norm =      12    812 0.12500E-01 0.73799E-07
(PID.TID 0000.0001)  S/R SEAICE_KRYLOV: Picard iterate / total =     12 /    812, Nb. of FGMRES iterations =      1
(PID.TID 0000.0001)  S/R SEAICE_KRYLOV: Picard iterate / total, KRYLOVgamma_lin, initial norm =      13    813 0.12500E-01 0.36899E-07
(PID.TID 0000.0001)  S/R SEAICE_KRYLOV: Picard iterate / total =     13 /    813, Nb. of FGMRES iterations =      1
(PID.TID 0000.0001)  S/R SEAICE_KRYLOV: Picard iterate / total, KRYLOVgamma_lin, initial norm =      14    814 0.12500E-01 0.18450E-07
(PID.TID 0000.0001)  S/R SEAICE_KRYLOV: Picard iterate / total =     14 /    814, Nb. of FGMRES iterations =      1
(PID.TID 0000.0001)  S/R SEAICE_KRYLOV: Picard iterate / total, KRYLOVgamma_lin, initial norm =      15    815 0.12500E-01 0.92249E-08
(PID.TID 0000.0001)  S/R SEAICE_KRYLOV: Picard iterate / total =     15 /    815, Nb. of FGMRES iterations =      1
(PID.TID 0000.0001)  S/R SEAICE_KRYLOV: Picard iterate / total, KRYLOVgamma_lin, initial norm =      16    816 0.12500E-01 0.46124E-08
(PID.TID 0000.0001)  S/R SEAICE_KRYLOV: Picard iterate / total =     16 /    816, Nb. of FGMRES iterations =      1
(PID.TID 0000.0001)  S/R SEAICE_KRYLOV: Picard iterate / total, KRYLOVgamma_lin, initial norm =      17    817 0.12500E-01 0.23062E-08
(PID.TID 0000.0001)  S/R SEAICE_KRYLOV: Picard iterate / total =     17 /    817, Nb. of FGMRES iterations =      1
(PID.TID 0000.0001)  S/R SEAICE_KRYLOV: Picard iterate / total, KRYLOVgamma_lin, initial norm =      18    818 0.12500E-01 0.11531E-08
(PID.TID 0000.0001)  S/R SEAICE_KRYLOV: Picard iterate / total =     18 /    818, Nb. of FGMRES iterations =      1
(PID.TID 0000.0001)  S/R SEAICE_KRYLOV: Picard iterate / total, KRYLOVgamma_lin, initial norm =      19    819 0.12500E-01 0.57655E-09
(PID.TID 0000.0001)  S/R SEAICE_KRYLOV: Picard iterate / total =     19 /    819, Nb. of FGMRES iterations =      1
(PID.TID 0000.0001)  S/R SEAICE_KRYLOV: Picard iterate / total, KRYLOVgamma_lin, initial norm =      20    820 0.12500E-01 0.28828E-09
(PID.TID 0000.0001)  S/R SEAICE_KRYLOV: Picard iterate / total =     20 /    820, Nb. of FGMRES iterations =      1
(PID.TID 0000.0001)  S/R SEAICE_KRYLOV: Picard iterate / total, KRYLOVgamma_lin, initial norm =      21    821 0.12500E-01 0.14414E-09
(PID.TID 0000.0001)  S/R SEAICE_KRYLOV: Picard iterate / total =     21 /    821, Nb. of FGMRES iterations =      1
(PID.TID 0000.0001)  S/R SEAICE_KRYLOV: Picard iterate / total, KRYLOVgamma_lin, initial norm =      22    822 0.12500E-01 0.72069E-10
(PID.TID 0000.0001)  S/R SEAICE_KRYLOV: Picard iterate / total =     22 /    822, Nb. of FGMRES iterations =      1
(PID.TID 0000.0001)  S/R SEAICE_KRYLOV: Picard iterate / total, KRYLOVgamma_lin, initial norm =      23    823 0.12500E-01 0.36035E-10
(PID.TID 0000.0001)  S/R SEAICE_KRYLOV: Picard iterate / total =     23 /    823, Nb. of FGMRES iterations =      1
(PID.TID 0000.0001)  S/R SEAICE_KRYLOV: Picard iterate / total, KRYLOVgamma_lin, initial norm =      24    824 0.12500E-01 0.18017E-10
(PID.TID 0000.0001)  S/R SEAICE_KRYLOV: Picard iterate / total =     24 /    824, Nb. of FGMRES iterations =      1
(PID.TID 0000.0001)  S/R SEAICE_KRYLOV: Picard iterate / total, KRYLOVgamma_lin, initial norm =      25    825 0.12500E-01 0.90087E-11
(PID.TID 0000.0001)  S/R SEAICE_KRYLOV: Picard iterate / total =     25 /    825, Nb. of FGMRES iterations =      1
(PID.TID 0000.0001)  S/R SEAICE_KRYLOV: Picard iterate / total, KRYLOVgamma_lin, initial norm =      26    826 0.12500E-01 0.45043E-11
(PID.TID 0000.0001)  S/R SEAICE_KRYLOV: Picard iterate / total =     26 /    826, Nb. of FGMRES iterations =      1
(PID.TID 0000.0001)  S/R SEAICE_KRYLOV: Picard iterate / total, KRYLOVgamma_lin, initial norm =      27    827 0.12500E-01 0.22522E-11
(PID.TID 0000.0001)  S/R SEAICE_KRYLOV: Picard iterate / total =     27 /    827, Nb. of FGMRES iterations =      1
(PID.TID 0000.0001)  S/R SEAICE_KRYLOV: Picard iterate / total, KRYLOVgamma_lin, initial norm =      28    828 0.12500E-01 0.11261E-11
(PID.TID 0000.0001)  S/R SEAICE_KRYLOV: Picard iterate / total =     28 /    828, Nb. of FGMRES iterations =      1
(PID.TID 0000.0001)  S/R SEAICE_KRYLOV: Picard iterate / total, KRYLOVgamma_lin, initial norm =      29    829 0.12500E-01 0.56304E-12
(PID.TID 0000.0001)  S/R SEAICE_KRYLOV: Picard iterate / total =     29 /    829, Nb. of FGMRES iterations =      1
(PID.TID 0000.0001)  S/R SEAICE_KRYLOV: Picard iterate / total, KRYLOVgamma_lin, initial norm =      30    830 0.12500E-01 0.28152E-12
(PID.TID 0000.0001)  S/R SEAICE_KRYLOV: Picard iterate / total =     30 /    830, Nb. of FGMRES iterations =      1
(PID.TID 0000.0001)  S/R SEAICE_KRYLOV: Picard iterate / total, KRYLOVgamma_lin, initial norm =      31    831 0.12500E-01 0.14076E-12
(PID.TID 0000.0001)  S/R SEAICE_KRYLOV: Picard iterate / total =     31 /    831, Nb. of FGMRES iterations =      1
(PID.TID 0000.0001)  S/R SEAICE_KRYLOV: Picard iterate / total, KRYLOVgamma_lin, final   norm =      32    832 0.12500E-01 0.70381E-13
(PID.TID 0000.0001)  // =======================================================
(PID.TID 0000.0001)  // Begin KRYLOV statistics
(PID.TID 0000.0001)  // =======================================================
(PID.TID 0000.0001)  %KRYLOV_MON: time step              =          9
(PID.TID 0000.0001)  %KRYLOV_MON: Nb. of time steps      =          1
(PID.TID 0000.0001)  %KRYLOV_MON: Nb. of Picard steps    =         32
(PID.TID 0000.0001)  %KRYLOV_MON: Nb. of Krylov steps    =         31
(PID.TID 0000.0001)  %KRYLOV_MON: Nb. of Picard failures =          0
(PID.TID 0000.0001)  %KRYLOV_MON: Nb. of Krylov failures =          0
(PID.TID 0000.0001)  // =======================================================
(PID.TID 0000.0001)  // End KRYLOV statistics
(PID.TID 0000.0001)  // =======================================================
(PID.TID 0000.0001)  S/R SEAICE_KRYLOV: Total number FGMRES iterations =     31 in timestep          9
(PID.TID 0000.0001) // =======================================================
(PID.TID 0000.0001) // Begin MONITOR dynamic field statistics
(PID.TID 0000.0001) // =======================================================
(PID.TID 0000.0001) %MON time_tsnumber                =                     9
(PID.TID 0000.0001) %MON time_secondsf                =   2.2500000000000E+01
(PID.TID 0000.0001) %MON dynstat_eta_max              =   0.0000000000000E+00
(PID.TID 0000.0001) %MON dynstat_eta_min              =   0.0000000000000E+00
(PID.TID 0000.0001) %MON dynstat_eta_mean             =   0.0000000000000E+00
(PID.TID 0000.0001) %MON dynstat_eta_sd               =   0.0000000000000E+00
(PID.TID 0000.0001) %MON dynstat_eta_del2             =   0.0000000000000E+00
(PID.TID 0000.0001) %MON dynstat_uvel_max             =   9.8437500000000E-03
(PID.TID 0000.0001) %MON dynstat_uvel_min             =  -9.8437500000000E-03
(PID.TID 0000.0001) %MON dynstat_uvel_mean            =   0.0000000000000E+00
(PID.TID 0000.0001) %MON dynstat_uvel_sd              =   5.7727978755972E-03
(PID.TID 0000.0001) %MON dynstat_uvel_del2            =   1.0089048364799E-20
(PID.TID 0000.0001) %MON dynstat_vvel_max             =   9.8437500000000E-03
(PID.TID 0000.0001) %MON dynstat_vvel_min             =  -9.8437500000000E-03
(PID.TID 0000.0001) %MON dynstat_vvel_mean            =   0.0000000000000E+00
(PID.TID 0000.0001) %MON dynstat_vvel_sd              =   5.7727978755972E-03
(PID.TID 0000.0001) %MON dynstat_vvel_del2            =   1.0089048364799E-20
(PID.TID 0000.0001) %MON dynstat_wvel_max             =   1.1914062500000E-05
(PID.TID 0000.0001) %MON dynstat_wvel_min             =  -1.1914062500000E-05
(PID.TID 0000.0001) %MON dynstat_wvel_mean            =   3.4694469519536E-25
(PID.TID 0000.0001) %MON dynstat_wvel_sd              =   1.7200872247780E-06
(PID.TID 0000.0001) %MON dynstat_wvel_del2            =   2.8187489626940E-08
(PID.TID 0000.0001) %MON dynstat_theta_max            =  -1.6200000000000E+00
(PID.TID 0000.0001) %MON dynstat_theta_min            =  -1.6200000000000E+00
(PID.TID 0000.0001) %MON dynstat_theta_mean           =  -1.6200000000000E+00
(PID.TID 0000.0001) %MON dynstat_theta_sd             =   0.0000000000000E+00
(PID.TID 0000.0001) %MON dynstat_theta_del2           =   0.0000000000000E+00
(PID.TID 0000.0001) %MON dynstat_salt_max             =   3.0000000000000E+01
(PID.TID 0000.0001) %MON dynstat_salt_min             =   3.0000000000000E+01
(PID.TID 0000.0001) %MON dynstat_salt_mean            =   3.0000000000000E+01
(PID.TID 0000.0001) %MON dynstat_salt_sd              =   0.0000000000000E+00
(PID.TID 0000.0001) %MON dynstat_salt_del2            =   0.0000000000000E+00
(PID.TID 0000.0001) %MON trAdv_CFL_u_max              =   3.0761718750000E-06
(PID.TID 0000.0001) %MON trAdv_CFL_v_max              =   3.0761718750000E-06
(PID.TID 0000.0001) %MON trAdv_CFL_w_max              =   2.9785156250000E-06
(PID.TID 0000.0001) %MON advcfl_uvel_max              =   3.0761718750000E-06
(PID.TID 0000.0001) %MON advcfl_vvel_max              =   3.0761718750000E-06
(PID.TID 0000.0001) %MON advcfl_wvel_max              =   5.9570312500000E-06
(PID.TID 0000.0001) %MON advcfl_W_hf_max              =   0.0000000000000E+00
(PID.TID 0000.0001) %MON pe_b_mean                    =   0.0000000000000E+00
(PID.TID 0000.0001) %MON ke_max                       =   9.0844726562500E-05
(PID.TID 0000.0001) %MON ke_mean                      =   3.2804489135742E-05
(PID.TID 0000.0001) %MON ke_vol                       =   2.6214400000000E+12
(PID.TID 0000.0001) %MON vort_r_min                   =  -7.8125000000000E-08
(PID.TID 0000.0001) %MON vort_r_max                   =   1.2304687500000E-06
(PID.TID 0000.0001) %MON vort_a_mean                  =   1.4856000000000E-04
(PID.TID 0000.0001) %MON vort_a_sd                    =   1.5312918562496E-06
(PID.TID 0000.0001) %MON vort_p_mean                  =   1.5552375000000E-04
(PID.TID 0000.0001) %MON vort_p_sd                    =   5.5921473110222E-05
(PID.TID 0000.0001) %MON surfExpan_theta_mean         =   0.0000000000000E+00
(PID.TID 0000.0001) %MON surfExpan_salt_mean          =   1.3877787807814E-23
(PID.TID 0000.0001) // =======================================================
(PID.TID 0000.0001) // End MONITOR dynamic field statistics
(PID.TID 0000.0001) // =======================================================
(PID.TID 0000.0001) // =======================================================
(PID.TID 0000.0001) // Begin MONITOR SEAICE statistics
(PID.TID 0000.0001) // =======================================================
(PID.TID 0000.0001) %MON seaice_tsnumber              =                     9
(PID.TID 0000.0001) %MON seaice_time_sec              =   2.2500000000000E+01
(PID.TID 0000.0001) %MON seaice_uice_max              =   1.5523024990921E-02
(PID.TID 0000.0001) %MON seaice_uice_min              =  -1.5838813949810E-02
(PID.TID 0000.0001) %MON seaice_uice_mean             =  -3.6055915676434E-07
(PID.TID 0000.0001) %MON seaice_uice_sd               =   6.6900697127878E-03
(PID.TID 0000.0001) %MON seaice_uice_del2             =   2.0550030122029E-06
(PID.TID 0000.0001) %MON seaice_vice_max              =   1.5161470694840E-02
(PID.TID 0000.0001) %MON seaice_vice_min              =  -1.5340198076844E-02
(PID.TID 0000.0001) %MON seaice_vice_mean             =   1.7105358454307E-06
(PID.TID 0000.0001) %MON seaice_vice_sd               =   6.6578597605129E-03
(PID.TID 0000.0001) %MON seaice_vice_del2             =   2.0589395430336E-06
(PID.TID 0000.0001) %MON seaice_area_max              =   1.0000000000000E+00
(PID.TID 0000.0001) %MON seaice_area_min              =   9.9999692417328E-01
(PID.TID 0000.0001) %MON seaice_area_mean             =   9.9999981178801E-01
(PID.TID 0000.0001) %MON seaice_area_sd               =   4.1549948424760E-07
(PID.TID 0000.0001) %MON seaice_area_del2             =   4.6181847795843E-09
(PID.TID 0000.0001) %MON seaice_heff_max              =   3.0999862319179E-01
(PID.TID 0000.0001) %MON seaice_heff_min              =   2.9006051455450E-01
(PID.TID 0000.0001) %MON seaice_heff_mean             =   3.0067126525963E-01
(PID.TID 0000.0001) %MON seaice_heff_sd               =   5.0069234892598E-03
(PID.TID 0000.0001) %MON seaice_heff_del2             =   1.2853746676802E-05
(PID.TID 0000.0001) %MON seaice_hsnow_max             =   0.0000000000000E+00
(PID.TID 0000.0001) %MON seaice_hsnow_min             =   0.0000000000000E+00
(PID.TID 0000.0001) %MON seaice_hsnow_mean            =   0.0000000000000E+00
(PID.TID 0000.0001) %MON seaice_hsnow_sd              =   0.0000000000000E+00
(PID.TID 0000.0001) %MON seaice_hsnow_del2            =   0.0000000000000E+00
(PID.TID 0000.0001) // =======================================================
(PID.TID 0000.0001) // End MONITOR SEAICE statistics
(PID.TID 0000.0001) // =======================================================
 Computing Diagnostic #    163  SIuice       Counter:       1   Parms: UU      M1      
           Vector  Mate for  SIuice       Diagnostic #    164  SIvice   exists 
 Computing Diagnostic #    164  SIvice       Counter:       1   Parms: VV      M1      
           Vector  Mate for  SIvice       Diagnostic #    163  SIuice   exists 
 Computing Diagnostic #    149  SIheff       Counter:       1   Parms: SM      M1      
 Computing Diagnostic #    146  SIarea       Counter:       1   Parms: SM      M1      
 Computing Diagnostic #    228  SIshear      Counter:       1   Parms: SM      M1      
 Computing Diagnostic #    233  SIcohes      Counter:       1   Parms: SM      M1      
 Computing Diagnostic #    221  SIsig1       Counter:       1   Parms: SM      M1      
 Computing Diagnostic #    222  SIsig2       Counter:       1   Parms: SM      M1      
 Computing Diagnostic #    231  SIdamage     Counter:       1   Parms: SM      M1      
 Computing Diagnostic #    165  SItaux       Counter:       1   Parms: UU      U1      
           Vector  Mate for  SItaux       Diagnostic #    166  SItauy   exists 
 Computing Diagnostic #    166  SItauy       Counter:       1   Parms: VV      U1      
           Vector  Mate for  SItauy       Diagnostic #    165  SItaux   exists 
 Computing Diagnostic #    133  EXFuwind     Counter:       1   Parms: UM      U1      
 Computing Diagnostic #    134  EXFvwind     Counter:       1   Parms: VM      U1      
(PID.TID 0000.0001)  S/R SEAICE_KRYLOV: Picard iterate / total, KRYLOVgamma_lin, initial norm =       1    901 0.10000E+00 0.11031E+00
(PID.TID 0000.0001)  S/R SEAICE_KRYLOV: Picard iterate / total =      1 /    901, Nb. of FGMRES iterations =      1
(PID.TID 0000.0001)  S/R SEAICE_KRYLOV: Picard iterate / total, KRYLOVgamma_lin, initial norm =       2    902 0.50000E-01 0.22049E-03
(PID.TID 0000.0001)  S/R SEAICE_KRYLOV: Picard iterate / total =      2 /    902, Nb. of FGMRES iterations =      1
(PID.TID 0000.0001)  S/R SEAICE_KRYLOV: Picard iterate / total, KRYLOVgamma_lin, initial norm =       3    903 0.50000E-01 0.23773E-04
(PID.TID 0000.0001)  S/R SEAICE_KRYLOV: Picard iterate / total =      3 /    903, Nb. of FGMRES iterations =      1
(PID.TID 0000.0001)  S/R SEAICE_KRYLOV: Picard iterate / total, KRYLOVgamma_lin, initial norm =       4    904 0.33333E-01 0.17508E-04
(PID.TID 0000.0001)  S/R SEAICE_KRYLOV: Picard iterate / total =      4 /    904, Nb. of FGMRES iterations =      1
(PID.TID 0000.0001)  S/R SEAICE_KRYLOV: Picard iterate / total, KRYLOVgamma_lin, initial norm =       5    905 0.33333E-01 0.82335E-05
(PID.TID 0000.0001)  S/R SEAICE_KRYLOV: Picard iterate / total =      5 /    905, Nb. of FGMRES iterations =      1
(PID.TID 0000.0001)  S/R SEAICE_KRYLOV: Picard iterate / total, KRYLOVgamma_lin, initial norm =       6    906 0.33333E-01 0.41591E-05
(PID.TID 0000.0001)  S/R SEAICE_KRYLOV: Picard iterate / total =      6 /    906, Nb. of FGMRES iterations =      1
(PID.TID 0000.0001)  S/R SEAICE_KRYLOV: Picard iterate / total, KRYLOVgamma_lin, initial norm =       7    907 0.33333E-01 0.20760E-05
(PID.TID 0000.0001)  S/R SEAICE_KRYLOV: Picard iterate / total =      7 /    907, Nb. of FGMRES iterations =      1
(PID.TID 0000.0001)  S/R SEAICE_KRYLOV: Picard iterate / total, KRYLOVgamma_lin, initial norm =       8    908 0.25000E-01 0.10383E-05
(PID.TID 0000.0001)  S/R SEAICE_KRYLOV: Picard iterate / total =      8 /    908, Nb. of FGMRES iterations =      1
(PID.TID 0000.0001)  S/R SEAICE_KRYLOV: Picard iterate / total, KRYLOVgamma_lin, initial norm =       9    909 0.20000E-01 0.51913E-06
(PID.TID 0000.0001)  S/R SEAICE_KRYLOV: Picard iterate / total =      9 /    909, Nb. of FGMRES iterations =      1
(PID.TID 0000.0001)  S/R SEAICE_KRYLOV: Picard iterate / total, KRYLOVgamma_lin, initial norm =      10    910 0.12500E-01 0.25957E-06
(PID.TID 0000.0001)  S/R SEAICE_KRYLOV: Picard iterate / total =     10 /    910, Nb. of FGMRES iterations =      1
(PID.TID 0000.0001)  S/R SEAICE_KRYLOV: Picard iterate / total, KRYLOVgamma_lin, initial norm =      11    911 0.12500E-01 0.12978E-06
(PID.TID 0000.0001)  S/R SEAICE_KRYLOV: Picard iterate / total =     11 /    911, Nb. of FGMRES iterations =      1
(PID.TID 0000.0001)  S/R SEAICE_KRYLOV: Picard iterate / total, KRYLOVgamma_lin, initial norm =      12    912 0.12500E-01 0.64892E-07
(PID.TID 0000.0001)  S/R SEAICE_KRYLOV: Picard iterate / total =     12 /    912, Nb. of FGMRES iterations =      1
(PID.TID 0000.0001)  S/R SEAICE_KRYLOV: Picard iterate / total, KRYLOVgamma_lin, initial norm =      13    913 0.12500E-01 0.32446E-07
(PID.TID 0000.0001)  S/R SEAICE_KRYLOV: Picard iterate / total =     13 /    913, Nb. of FGMRES iterations =      1
(PID.TID 0000.0001)  S/R SEAICE_KRYLOV: Picard iterate / total, KRYLOVgamma_lin, initial norm =      14    914 0.12500E-01 0.16223E-07
(PID.TID 0000.0001)  S/R SEAICE_KRYLOV: Picard iterate / total =     14 /    914, Nb. of FGMRES iterations =      1
(PID.TID 0000.0001)  S/R SEAICE_KRYLOV: Picard iterate / total, KRYLOVgamma_lin, initial norm =      15    915 0.12500E-01 0.81115E-08
(PID.TID 0000.0001)  S/R SEAICE_KRYLOV: Picard iterate / total =     15 /    915, Nb. of FGMRES iterations =      1
(PID.TID 0000.0001)  S/R SEAICE_KRYLOV: Picard iterate / total, KRYLOVgamma_lin, initial norm =      16    916 0.12500E-01 0.40557E-08
(PID.TID 0000.0001)  S/R SEAICE_KRYLOV: Picard iterate / total =     16 /    916, Nb. of FGMRES iterations =      1
(PID.TID 0000.0001)  S/R SEAICE_KRYLOV: Picard iterate / total, KRYLOVgamma_lin, initial norm =      17    917 0.12500E-01 0.20279E-08
(PID.TID 0000.0001)  S/R SEAICE_KRYLOV: Picard iterate / total =     17 /    917, Nb. of FGMRES iterations =      1
(PID.TID 0000.0001)  S/R SEAICE_KRYLOV: Picard iterate / total, KRYLOVgamma_lin, initial norm =      18    918 0.12500E-01 0.10139E-08
(PID.TID 0000.0001)  S/R SEAICE_KRYLOV: Picard iterate / total =     18 /    918, Nb. of FGMRES iterations =      1
(PID.TID 0000.0001)  S/R SEAICE_KRYLOV: Picard iterate / total, KRYLOVgamma_lin, initial norm =      19    919 0.12500E-01 0.50697E-09
(PID.TID 0000.0001)  S/R SEAICE_KRYLOV: Picard iterate / total =     19 /    919, Nb. of FGMRES iterations =      1
(PID.TID 0000.0001)  S/R SEAICE_KRYLOV: Picard iterate / total, KRYLOVgamma_lin, initial norm =      20    920 0.12500E-01 0.25348E-09
(PID.TID 0000.0001)  S/R SEAICE_KRYLOV: Picard iterate / total =     20 /    920, Nb. of FGMRES iterations =      1
(PID.TID 0000.0001)  S/R SEAICE_KRYLOV: Picard iterate / total, KRYLOVgamma_lin, initial norm =      21    921 0.12500E-01 0.12674E-09
(PID.TID 0000.0001)  S/R SEAICE_KRYLOV: Picard iterate / total =     21 /    921, Nb. of FGMRES iterations =      1
(PID.TID 0000.0001)  S/R SEAICE_KRYLOV: Picard iterate / total, KRYLOVgamma_lin, initial norm =      22    922 0.12500E-01 0.63371E-10
(PID.TID 0000.0001)  S/R SEAICE_KRYLOV: Picard iterate / total =     22 /    922, Nb. of FGMRES iterations =      1
(PID.TID 0000.0001)  S/R SEAICE_KRYLOV: Picard iterate / total, KRYLOVgamma_lin, initial norm =      23    923 0.12500E-01 0.31685E-10
(PID.TID 0000.0001)  S/R SEAICE_KRYLOV: Picard iterate / total =     23 /    923, Nb. of FGMRES iterations =      1
(PID.TID 0000.0001)  S/R SEAICE_KRYLOV: Picard iterate / total, KRYLOVgamma_lin, initial norm =      24    924 0.12500E-01 0.15843E-10
(PID.TID 0000.0001)  S/R SEAICE_KRYLOV: Picard iterate / total =     24 /    924, Nb. of FGMRES iterations =      1
(PID.TID 0000.0001)  S/R SEAICE_KRYLOV: Picard iterate / total, KRYLOVgamma_lin, initial norm =      25    925 0.12500E-01 0.79214E-11
(PID.TID 0000.0001)  S/R SEAICE_KRYLOV: Picard iterate / total =     25 /    925, Nb. of FGMRES iterations =      1
(PID.TID 0000.0001)  S/R SEAICE_KRYLOV: Picard iterate / total, KRYLOVgamma_lin, initial norm =      26    926 0.12500E-01 0.39607E-11
(PID.TID 0000.0001)  S/R SEAICE_KRYLOV: Picard iterate / total =     26 /    926, Nb. of FGMRES iterations =      1
(PID.TID 0000.0001)  S/R SEAICE_KRYLOV: Picard iterate / total, KRYLOVgamma_lin, initial norm =      27    927 0.12500E-01 0.19803E-11
(PID.TID 0000.0001)  S/R SEAICE_KRYLOV: Picard iterate / total =     27 /    927, Nb. of FGMRES iterations =      1
(PID.TID 0000.0001)  S/R SEAICE_KRYLOV: Picard iterate / total, KRYLOVgamma_lin, initial norm =      28    928 0.12500E-01 0.99017E-12
(PID.TID 0000.0001)  S/R SEAICE_KRYLOV: Picard iterate / total =     28 /    928, Nb. of FGMRES iterations =      1
(PID.TID 0000.0001)  S/R SEAICE_KRYLOV: Picard iterate / total, KRYLOVgamma_lin, initial norm =      29    929 0.12500E-01 0.49508E-12
(PID.TID 0000.0001)  S/R SEAICE_KRYLOV: Picard iterate / total =     29 /    929, Nb. of FGMRES iterations =      1
(PID.TID 0000.0001)  S/R SEAICE_KRYLOV: Picard iterate / total, KRYLOVgamma_lin, initial norm =      30    930 0.12500E-01 0.24754E-12
(PID.TID 0000.0001)  S/R SEAICE_KRYLOV: Picard iterate / total =     30 /    930, Nb. of FGMRES iterations =      1
(PID.TID 0000.0001)  S/R SEAICE_KRYLOV: Picard iterate / total, KRYLOVgamma_lin, initial norm =      31    931 0.12500E-01 0.12377E-12
(PID.TID 0000.0001)  S/R SEAICE_KRYLOV: Picard iterate / total =     31 /    931, Nb. of FGMRES iterations =      1
(PID.TID 0000.0001)  S/R SEAICE_KRYLOV: Picard iterate / total, KRYLOVgamma_lin, final   norm =      32    932 0.12500E-01 0.61887E-13
(PID.TID 0000.0001)  // =======================================================
(PID.TID 0000.0001)  // Begin KRYLOV statistics
(PID.TID 0000.0001)  // =======================================================
(PID.TID 0000.0001)  %KRYLOV_MON: time step              =         10
(PID.TID 0000.0001)  %KRYLOV_MON: Nb. of time steps      =          1
(PID.TID 0000.0001)  %KRYLOV_MON: Nb. of Picard steps    =         32
(PID.TID 0000.0001)  %KRYLOV_MON: Nb. of Krylov steps    =         31
(PID.TID 0000.0001)  %KRYLOV_MON: Nb. of Picard failures =          0
(PID.TID 0000.0001)  %KRYLOV_MON: Nb. of Krylov failures =          0
(PID.TID 0000.0001)  // =======================================================
(PID.TID 0000.0001)  // End KRYLOV statistics
(PID.TID 0000.0001)  // =======================================================
(PID.TID 0000.0001)  S/R SEAICE_KRYLOV: Total number FGMRES iterations =     31 in timestep         10
(PID.TID 0000.0001) // =======================================================
(PID.TID 0000.0001) // Begin MONITOR dynamic field statistics
(PID.TID 0000.0001) // =======================================================
(PID.TID 0000.0001) %MON time_tsnumber                =                    10
(PID.TID 0000.0001) %MON time_secondsf                =   2.5000000000000E+01
(PID.TID 0000.0001) %MON dynstat_eta_max              =   0.0000000000000E+00
(PID.TID 0000.0001) %MON dynstat_eta_min              =   0.0000000000000E+00
(PID.TID 0000.0001) %MON dynstat_eta_mean             =   0.0000000000000E+00
(PID.TID 0000.0001) %MON dynstat_eta_sd               =   0.0000000000000E+00
(PID.TID 0000.0001) %MON dynstat_eta_del2             =   0.0000000000000E+00
(PID.TID 0000.0001) %MON dynstat_uvel_max             =   9.8437500000000E-03
(PID.TID 0000.0001) %MON dynstat_uvel_min             =  -9.8437500000000E-03
(PID.TID 0000.0001) %MON dynstat_uvel_mean            =   0.0000000000000E+00
(PID.TID 0000.0001) %MON dynstat_uvel_sd              =   5.7727978755972E-03
(PID.TID 0000.0001) %MON dynstat_uvel_del2            =   1.0089048364799E-20
(PID.TID 0000.0001) %MON dynstat_vvel_max             =   9.8437500000000E-03
(PID.TID 0000.0001) %MON dynstat_vvel_min             =  -9.8437500000000E-03
(PID.TID 0000.0001) %MON dynstat_vvel_mean            =   0.0000000000000E+00
(PID.TID 0000.0001) %MON dynstat_vvel_sd              =   5.7727978755972E-03
(PID.TID 0000.0001) %MON dynstat_vvel_del2            =   1.0089048364799E-20
(PID.TID 0000.0001) %MON dynstat_wvel_max             =   1.1914062500000E-05
(PID.TID 0000.0001) %MON dynstat_wvel_min             =  -1.1914062500000E-05
(PID.TID 0000.0001) %MON dynstat_wvel_mean            =   3.4694469519536E-25
(PID.TID 0000.0001) %MON dynstat_wvel_sd              =   1.7200872247780E-06
(PID.TID 0000.0001) %MON dynstat_wvel_del2            =   2.8187489626940E-08
(PID.TID 0000.0001) %MON dynstat_theta_max            =  -1.6200000000000E+00
(PID.TID 0000.0001) %MON dynstat_theta_min            =  -1.6200000000000E+00
(PID.TID 0000.0001) %MON dynstat_theta_mean           =  -1.6200000000000E+00
(PID.TID 0000.0001) %MON dynstat_theta_sd             =   0.0000000000000E+00
(PID.TID 0000.0001) %MON dynstat_theta_del2           =   0.0000000000000E+00
(PID.TID 0000.0001) %MON dynstat_salt_max             =   3.0000000000000E+01
(PID.TID 0000.0001) %MON dynstat_salt_min             =   3.0000000000000E+01
(PID.TID 0000.0001) %MON dynstat_salt_mean            =   3.0000000000000E+01
(PID.TID 0000.0001) %MON dynstat_salt_sd              =   0.0000000000000E+00
(PID.TID 0000.0001) %MON dynstat_salt_del2            =   0.0000000000000E+00
(PID.TID 0000.0001) %MON trAdv_CFL_u_max              =   3.0761718750000E-06
(PID.TID 0000.0001) %MON trAdv_CFL_v_max              =   3.0761718750000E-06
(PID.TID 0000.0001) %MON trAdv_CFL_w_max              =   2.9785156250000E-06
(PID.TID 0000.0001) %MON advcfl_uvel_max              =   3.0761718750000E-06
(PID.TID 0000.0001) %MON advcfl_vvel_max              =   3.0761718750000E-06
(PID.TID 0000.0001) %MON advcfl_wvel_max              =   5.9570312500000E-06
(PID.TID 0000.0001) %MON advcfl_W_hf_max              =   0.0000000000000E+00
(PID.TID 0000.0001) %MON pe_b_mean                    =   0.0000000000000E+00
(PID.TID 0000.0001) %MON ke_max                       =   9.0844726562500E-05
(PID.TID 0000.0001) %MON ke_mean                      =   3.2804489135742E-05
(PID.TID 0000.0001) %MON ke_vol                       =   2.6214400000000E+12
(PID.TID 0000.0001) %MON vort_r_min                   =  -7.8125000000000E-08
(PID.TID 0000.0001) %MON vort_r_max                   =   1.2304687500000E-06
(PID.TID 0000.0001) %MON vort_a_mean                  =   1.4856000000000E-04
(PID.TID 0000.0001) %MON vort_a_sd                    =   1.5312918562496E-06
(PID.TID 0000.0001) %MON vort_p_mean                  =   1.5552375000000E-04
(PID.TID 0000.0001) %MON vort_p_sd                    =   5.5921473110222E-05
(PID.TID 0000.0001) %MON surfExpan_theta_mean         =   0.0000000000000E+00
(PID.TID 0000.0001) %MON surfExpan_salt_mean          =   1.3877787807814E-23
(PID.TID 0000.0001) // =======================================================
(PID.TID 0000.0001) // End MONITOR dynamic field statistics
(PID.TID 0000.0001) // =======================================================
(PID.TID 0000.0001) // =======================================================
(PID.TID 0000.0001) // Begin MONITOR SEAICE statistics
(PID.TID 0000.0001) // =======================================================
(PID.TID 0000.0001) %MON seaice_tsnumber              =                    10
(PID.TID 0000.0001) %MON seaice_time_sec              =   2.5000000000000E+01
(PID.TID 0000.0001) %MON seaice_uice_max              =   1.7200545268187E-02
(PID.TID 0000.0001) %MON seaice_uice_min              =  -1.7552988518450E-02
(PID.TID 0000.0001) %MON seaice_uice_mean             =  -4.0470649107504E-07
(PID.TID 0000.0001) %MON seaice_uice_sd               =   7.4193068560864E-03
(PID.TID 0000.0001) %MON seaice_uice_del2             =   2.2723435751538E-06
(PID.TID 0000.0001) %MON seaice_vice_max              =   1.6805187665859E-02
(PID.TID 0000.0001) %MON seaice_vice_min              =  -1.7000611953897E-02
(PID.TID 0000.0001) %MON seaice_vice_mean             =   1.9203784702805E-06
(PID.TID 0000.0001) %MON seaice_vice_sd               =   7.3837757985000E-03
(PID.TID 0000.0001) %MON seaice_vice_del2             =   2.2775012603289E-06
(PID.TID 0000.0001) %MON seaice_area_max              =   1.0000000000000E+00
(PID.TID 0000.0001) %MON seaice_area_min              =   9.9999622767721E-01
(PID.TID 0000.0001) %MON seaice_area_mean             =   9.9999977069453E-01
(PID.TID 0000.0001) %MON seaice_area_sd               =   5.0845773927808E-07
(PID.TID 0000.0001) %MON seaice_area_del2             =   5.8000271247452E-09
(PID.TID 0000.0001) %MON seaice_heff_max              =   3.0999861223781E-01
(PID.TID 0000.0001) %MON seaice_heff_min              =   2.9006050328864E-01
(PID.TID 0000.0001) %MON seaice_heff_mean             =   3.0067126525963E-01
(PID.TID 0000.0001) %MON seaice_heff_sd               =   5.0069236801528E-03
(PID.TID 0000.0001) %MON seaice_heff_del2             =   1.2853745814907E-05
(PID.TID 0000.0001) %MON seaice_hsnow_max             =   0.0000000000000E+00
(PID.TID 0000.0001) %MON seaice_hsnow_min             =   0.0000000000000E+00
(PID.TID 0000.0001) %MON seaice_hsnow_mean            =   0.0000000000000E+00
(PID.TID 0000.0001) %MON seaice_hsnow_sd              =   0.0000000000000E+00
(PID.TID 0000.0001) %MON seaice_hsnow_del2            =   0.0000000000000E+00
(PID.TID 0000.0001) // =======================================================
(PID.TID 0000.0001) // End MONITOR SEAICE statistics
(PID.TID 0000.0001) // =======================================================
 Computing Diagnostic #    163  SIuice       Counter:       1   Parms: UU      M1      
           Vector  Mate for  SIuice       Diagnostic #    164  SIvice   exists 
 Computing Diagnostic #    164  SIvice       Counter:       1   Parms: VV      M1      
           Vector  Mate for  SIvice       Diagnostic #    163  SIuice   exists 
 Computing Diagnostic #    149  SIheff       Counter:       1   Parms: SM      M1      
 Computing Diagnostic #    146  SIarea       Counter:       1   Parms: SM      M1      
 Computing Diagnostic #    228  SIshear      Counter:       1   Parms: SM      M1      
 Computing Diagnostic #    233  SIcohes      Counter:       1   Parms: SM      M1      
 Computing Diagnostic #    221  SIsig1       Counter:       1   Parms: SM      M1      
 Computing Diagnostic #    222  SIsig2       Counter:       1   Parms: SM      M1      
 Computing Diagnostic #    231  SIdamage     Counter:       1   Parms: SM      M1      
 Computing Diagnostic #    165  SItaux       Counter:       1   Parms: UU      U1      
           Vector  Mate for  SItaux       Diagnostic #    166  SItauy   exists 
 Computing Diagnostic #    166  SItauy       Counter:       1   Parms: VV      U1      
           Vector  Mate for  SItauy       Diagnostic #    165  SItaux   exists 
 Computing Diagnostic #    133  EXFuwind     Counter:       1   Parms: UM      U1      
 Computing Diagnostic #    134  EXFvwind     Counter:       1   Parms: VM      U1      
(PID.TID 0000.0001)  S/R SEAICE_KRYLOV: Picard iterate / total, KRYLOVgamma_lin, initial norm =       1   1001 0.10000E+00 0.10998E+00
(PID.TID 0000.0001)  S/R SEAICE_KRYLOV: Picard iterate / total =      1 /   1001, Nb. of FGMRES iterations =      1
(PID.TID 0000.0001)  S/R SEAICE_KRYLOV: Picard iterate / total, KRYLOVgamma_lin, initial norm =       2   1002 0.50000E-01 0.20477E-03
(PID.TID 0000.0001)  S/R SEAICE_KRYLOV: Picard iterate / total =      2 /   1002, Nb. of FGMRES iterations =      1
(PID.TID 0000.0001)  S/R SEAICE_KRYLOV: Picard iterate / total, KRYLOVgamma_lin, initial norm =       3   1003 0.50000E-01 0.20861E-04
(PID.TID 0000.0001)  S/R SEAICE_KRYLOV: Picard iterate / total =      3 /   1003, Nb. of FGMRES iterations =      1
(PID.TID 0000.0001)  S/R SEAICE_KRYLOV: Picard iterate / total, KRYLOVgamma_lin, initial norm =       4   1004 0.33333E-01 0.15563E-04
(PID.TID 0000.0001)  S/R SEAICE_KRYLOV: Picard iterate / total =      4 /   1004, Nb. of FGMRES iterations =      1
(PID.TID 0000.0001)  S/R SEAICE_KRYLOV: Picard iterate / total, KRYLOVgamma_lin, initial norm =       5   1005 0.33333E-01 0.73032E-05
(PID.TID 0000.0001)  S/R SEAICE_KRYLOV: Picard iterate / total =      5 /   1005, Nb. of FGMRES iterations =      1
(PID.TID 0000.0001)  S/R SEAICE_KRYLOV: Picard iterate / total, KRYLOVgamma_lin, initial norm =       6   1006 0.33333E-01 0.36900E-05
(PID.TID 0000.0001)  S/R SEAICE_KRYLOV: Picard iterate / total =      6 /   1006, Nb. of FGMRES iterations =      1
(PID.TID 0000.0001)  S/R SEAICE_KRYLOV: Picard iterate / total, KRYLOVgamma_lin, initial norm =       7   1007 0.33333E-01 0.18419E-05
(PID.TID 0000.0001)  S/R SEAICE_KRYLOV: Picard iterate / total =      7 /   1007, Nb. of FGMRES iterations =      1
(PID.TID 0000.0001)  S/R SEAICE_KRYLOV: Picard iterate / total, KRYLOVgamma_lin, initial norm =       8   1008 0.25000E-01 0.92119E-06
(PID.TID 0000.0001)  S/R SEAICE_KRYLOV: Picard iterate / total =      8 /   1008, Nb. of FGMRES iterations =      1
(PID.TID 0000.0001)  S/R SEAICE_KRYLOV: Picard iterate / total, KRYLOVgamma_lin, initial norm =       9   1009 0.20000E-01 0.46058E-06
(PID.TID 0000.0001)  S/R SEAICE_KRYLOV: Picard iterate / total =      9 /   1009, Nb. of FGMRES iterations =      1
(PID.TID 0000.0001)  S/R SEAICE_KRYLOV: Picard iterate / total, KRYLOVgamma_lin, initial norm =      10   1010 0.12500E-01 0.23029E-06
(PID.TID 0000.0001)  S/R SEAICE_KRYLOV: Picard iterate / total =     10 /   1010, Nb. of FGMRES iterations =      1
(PID.TID 0000.0001)  S/R SEAICE_KRYLOV: Picard iterate / total, KRYLOVgamma_lin, initial norm =      11   1011 0.12500E-01 0.11514E-06
(PID.TID 0000.0001)  S/R SEAICE_KRYLOV: Picard iterate / total =     11 /   1011, Nb. of FGMRES iterations =      1
(PID.TID 0000.0001)  S/R SEAICE_KRYLOV: Picard iterate / total, KRYLOVgamma_lin, initial norm =      12   1012 0.12500E-01 0.57572E-07
(PID.TID 0000.0001)  S/R SEAICE_KRYLOV: Picard iterate / total =     12 /   1012, Nb. of FGMRES iterations =      1
(PID.TID 0000.0001)  S/R SEAICE_KRYLOV: Picard iterate / total, KRYLOVgamma_lin, initial norm =      13   1013 0.12500E-01 0.28786E-07
(PID.TID 0000.0001)  S/R SEAICE_KRYLOV: Picard iterate / total =     13 /   1013, Nb. of FGMRES iterations =      1
(PID.TID 0000.0001)  S/R SEAICE_KRYLOV: Picard iterate / total, KRYLOVgamma_lin, initial norm =      14   1014 0.12500E-01 0.14393E-07
(PID.TID 0000.0001)  S/R SEAICE_KRYLOV: Picard iterate / total =     14 /   1014, Nb. of FGMRES iterations =      1
(PID.TID 0000.0001)  S/R SEAICE_KRYLOV: Picard iterate / total, KRYLOVgamma_lin, initial norm =      15   1015 0.12500E-01 0.71965E-08
(PID.TID 0000.0001)  S/R SEAICE_KRYLOV: Picard iterate / total =     15 /   1015, Nb. of FGMRES iterations =      1
(PID.TID 0000.0001)  S/R SEAICE_KRYLOV: Picard iterate / total, KRYLOVgamma_lin, initial norm =      16   1016 0.12500E-01 0.35983E-08
(PID.TID 0000.0001)  S/R SEAICE_KRYLOV: Picard iterate / total =     16 /   1016, Nb. of FGMRES iterations =      1
(PID.TID 0000.0001)  S/R SEAICE_KRYLOV: Picard iterate / total, KRYLOVgamma_lin, initial norm =      17   1017 0.12500E-01 0.17991E-08
(PID.TID 0000.0001)  S/R SEAICE_KRYLOV: Picard iterate / total =     17 /   1017, Nb. of FGMRES iterations =      1
(PID.TID 0000.0001)  S/R SEAICE_KRYLOV: Picard iterate / total, KRYLOVgamma_lin, initial norm =      18   1018 0.12500E-01 0.89957E-09
(PID.TID 0000.0001)  S/R SEAICE_KRYLOV: Picard iterate / total =     18 /   1018, Nb. of FGMRES iterations =      1
(PID.TID 0000.0001)  S/R SEAICE_KRYLOV: Picard iterate / total, KRYLOVgamma_lin, initial norm =      19   1019 0.12500E-01 0.44978E-09
(PID.TID 0000.0001)  S/R SEAICE_KRYLOV: Picard iterate / total =     19 /   1019, Nb. of FGMRES iterations =      1
(PID.TID 0000.0001)  S/R SEAICE_KRYLOV: Picard iterate / total, KRYLOVgamma_lin, initial norm =      20   1020 0.12500E-01 0.22489E-09
(PID.TID 0000.0001)  S/R SEAICE_KRYLOV: Picard iterate / total =     20 /   1020, Nb. of FGMRES iterations =      1
(PID.TID 0000.0001)  S/R SEAICE_KRYLOV: Picard iterate / total, KRYLOVgamma_lin, initial norm =      21   1021 0.12500E-01 0.11245E-09
(PID.TID 0000.0001)  S/R SEAICE_KRYLOV: Picard iterate / total =     21 /   1021, Nb. of FGMRES iterations =      1
(PID.TID 0000.0001)  S/R SEAICE_KRYLOV: Picard iterate / total, KRYLOVgamma_lin, initial norm =      22   1022 0.12500E-01 0.56223E-10
(PID.TID 0000.0001)  S/R SEAICE_KRYLOV: Picard iterate / total =     22 /   1022, Nb. of FGMRES iterations =      1
(PID.TID 0000.0001)  S/R SEAICE_KRYLOV: Picard iterate / total, KRYLOVgamma_lin, initial norm =      23   1023 0.12500E-01 0.28111E-10
(PID.TID 0000.0001)  S/R SEAICE_KRYLOV: Picard iterate / total =     23 /   1023, Nb. of FGMRES iterations =      1
(PID.TID 0000.0001)  S/R SEAICE_KRYLOV: Picard iterate / total, KRYLOVgamma_lin, initial norm =      24   1024 0.12500E-01 0.14056E-10
(PID.TID 0000.0001)  S/R SEAICE_KRYLOV: Picard iterate / total =     24 /   1024, Nb. of FGMRES iterations =      1
(PID.TID 0000.0001)  S/R SEAICE_KRYLOV: Picard iterate / total, KRYLOVgamma_lin, initial norm =      25   1025 0.12500E-01 0.70279E-11
(PID.TID 0000.0001)  S/R SEAICE_KRYLOV: Picard iterate / total =     25 /   1025, Nb. of FGMRES iterations =      1
(PID.TID 0000.0001)  S/R SEAICE_KRYLOV: Picard iterate / total, KRYLOVgamma_lin, initial norm =      26   1026 0.12500E-01 0.35139E-11
(PID.TID 0000.0001)  S/R SEAICE_KRYLOV: Picard iterate / total =     26 /   1026, Nb. of FGMRES iterations =      1
(PID.TID 0000.0001)  S/R SEAICE_KRYLOV: Picard iterate / total, KRYLOVgamma_lin, initial norm =      27   1027 0.12500E-01 0.17570E-11
(PID.TID 0000.0001)  S/R SEAICE_KRYLOV: Picard iterate / total =     27 /   1027, Nb. of FGMRES iterations =      1
(PID.TID 0000.0001)  S/R SEAICE_KRYLOV: Picard iterate / total, KRYLOVgamma_lin, initial norm =      28   1028 0.12500E-01 0.87849E-12
(PID.TID 0000.0001)  S/R SEAICE_KRYLOV: Picard iterate / total =     28 /   1028, Nb. of FGMRES iterations =      1
(PID.TID 0000.0001)  S/R SEAICE_KRYLOV: Picard iterate / total, KRYLOVgamma_lin, initial norm =      29   1029 0.12500E-01 0.43924E-12
(PID.TID 0000.0001)  S/R SEAICE_KRYLOV: Picard iterate / total =     29 /   1029, Nb. of FGMRES iterations =      1
(PID.TID 0000.0001)  S/R SEAICE_KRYLOV: Picard iterate / total, KRYLOVgamma_lin, initial norm =      30   1030 0.12500E-01 0.21962E-12
(PID.TID 0000.0001)  S/R SEAICE_KRYLOV: Picard iterate / total =     30 /   1030, Nb. of FGMRES iterations =      1
(PID.TID 0000.0001)  S/R SEAICE_KRYLOV: Picard iterate / total, KRYLOVgamma_lin, final   norm =      31   1031 0.12500E-01 0.10981E-12
(PID.TID 0000.0001)  // =======================================================
(PID.TID 0000.0001)  // Begin KRYLOV statistics
(PID.TID 0000.0001)  // =======================================================
(PID.TID 0000.0001)  %KRYLOV_MON: time step              =         11
(PID.TID 0000.0001)  %KRYLOV_MON: Nb. of time steps      =          1
(PID.TID 0000.0001)  %KRYLOV_MON: Nb. of Picard steps    =         31
(PID.TID 0000.0001)  %KRYLOV_MON: Nb. of Krylov steps    =         30
(PID.TID 0000.0001)  %KRYLOV_MON: Nb. of Picard failures =          0
(PID.TID 0000.0001)  %KRYLOV_MON: Nb. of Krylov failures =          0
(PID.TID 0000.0001)  // =======================================================
(PID.TID 0000.0001)  // End KRYLOV statistics
(PID.TID 0000.0001)  // =======================================================
(PID.TID 0000.0001)  S/R SEAICE_KRYLOV: Total number FGMRES iterations =     30 in timestep         11
(PID.TID 0000.0001) // =======================================================
(PID.TID 0000.0001) // Begin MONITOR dynamic field statistics
(PID.TID 0000.0001) // =======================================================
(PID.TID 0000.0001) %MON time_tsnumber                =                    11
(PID.TID 0000.0001) %MON time_secondsf                =   2.7500000000000E+01
(PID.TID 0000.0001) %MON dynstat_eta_max              =   0.0000000000000E+00
(PID.TID 0000.0001) %MON dynstat_eta_min              =   0.0000000000000E+00
(PID.TID 0000.0001) %MON dynstat_eta_mean             =   0.0000000000000E+00
(PID.TID 0000.0001) %MON dynstat_eta_sd               =   0.0000000000000E+00
(PID.TID 0000.0001) %MON dynstat_eta_del2             =   0.0000000000000E+00
(PID.TID 0000.0001) %MON dynstat_uvel_max             =   9.8437500000000E-03
(PID.TID 0000.0001) %MON dynstat_uvel_min             =  -9.8437500000000E-03
(PID.TID 0000.0001) %MON dynstat_uvel_mean            =   0.0000000000000E+00
(PID.TID 0000.0001) %MON dynstat_uvel_sd              =   5.7727978755972E-03
(PID.TID 0000.0001) %MON dynstat_uvel_del2            =   1.0089048364799E-20
(PID.TID 0000.0001) %MON dynstat_vvel_max             =   9.8437500000000E-03
(PID.TID 0000.0001) %MON dynstat_vvel_min             =  -9.8437500000000E-03
(PID.TID 0000.0001) %MON dynstat_vvel_mean            =   0.0000000000000E+00
(PID.TID 0000.0001) %MON dynstat_vvel_sd              =   5.7727978755972E-03
(PID.TID 0000.0001) %MON dynstat_vvel_del2            =   1.0089048364799E-20
(PID.TID 0000.0001) %MON dynstat_wvel_max             =   1.1914062500000E-05
(PID.TID 0000.0001) %MON dynstat_wvel_min             =  -1.1914062500000E-05
(PID.TID 0000.0001) %MON dynstat_wvel_mean            =   3.4694469519536E-25
(PID.TID 0000.0001) %MON dynstat_wvel_sd              =   1.7200872247780E-06
(PID.TID 0000.0001) %MON dynstat_wvel_del2            =   2.8187489626940E-08
(PID.TID 0000.0001) %MON dynstat_theta_max            =  -1.6200000000000E+00
(PID.TID 0000.0001) %MON dynstat_theta_min            =  -1.6200000000000E+00
(PID.TID 0000.0001) %MON dynstat_theta_mean           =  -1.6200000000000E+00
(PID.TID 0000.0001) %MON dynstat_theta_sd             =   0.0000000000000E+00
(PID.TID 0000.0001) %MON dynstat_theta_del2           =   0.0000000000000E+00
(PID.TID 0000.0001) %MON dynstat_salt_max             =   3.0000000000000E+01
(PID.TID 0000.0001) %MON dynstat_salt_min             =   3.0000000000000E+01
(PID.TID 0000.0001) %MON dynstat_salt_mean            =   3.0000000000000E+01
(PID.TID 0000.0001) %MON dynstat_salt_sd              =   0.0000000000000E+00
(PID.TID 0000.0001) %MON dynstat_salt_del2            =   0.0000000000000E+00
(PID.TID 0000.0001) %MON trAdv_CFL_u_max              =   3.0761718750000E-06
(PID.TID 0000.0001) %MON trAdv_CFL_v_max              =   3.0761718750000E-06
(PID.TID 0000.0001) %MON trAdv_CFL_w_max              =   2.9785156250000E-06
(PID.TID 0000.0001) %MON advcfl_uvel_max              =   3.0761718750000E-06
(PID.TID 0000.0001) %MON advcfl_vvel_max              =   3.0761718750000E-06
(PID.TID 0000.0001) %MON advcfl_wvel_max              =   5.9570312500000E-06
(PID.TID 0000.0001) %MON advcfl_W_hf_max              =   0.0000000000000E+00
(PID.TID 0000.0001) %MON pe_b_mean                    =   0.0000000000000E+00
(PID.TID 0000.0001) %MON ke_max                       =   9.0844726562500E-05
(PID.TID 0000.0001) %MON ke_mean                      =   3.2804489135742E-05
(PID.TID 0000.0001) %MON ke_vol                       =   2.6214400000000E+12
(PID.TID 0000.0001) %MON vort_r_min                   =  -7.8125000000000E-08
(PID.TID 0000.0001) %MON vort_r_max                   =   1.2304687500000E-06
(PID.TID 0000.0001) %MON vort_a_mean                  =   1.4856000000000E-04
(PID.TID 0000.0001) %MON vort_a_sd                    =   1.5312918562496E-06
(PID.TID 0000.0001) %MON vort_p_mean                  =   1.5552375000000E-04
(PID.TID 0000.0001) %MON vort_p_sd                    =   5.5921473110222E-05
(PID.TID 0000.0001) %MON surfExpan_theta_mean         =   0.0000000000000E+00
(PID.TID 0000.0001) %MON surfExpan_salt_mean          =   1.3877787807814E-23
(PID.TID 0000.0001) // =======================================================
(PID.TID 0000.0001) // End MONITOR dynamic field statistics
(PID.TID 0000.0001) // =======================================================
(PID.TID 0000.0001) // =======================================================
(PID.TID 0000.0001) // Begin MONITOR SEAICE statistics
(PID.TID 0000.0001) // =======================================================
(PID.TID 0000.0001) %MON seaice_tsnumber              =                    11
(PID.TID 0000.0001) %MON seaice_time_sec              =   2.7500000000000E+01
(PID.TID 0000.0001) %MON seaice_uice_max              =   1.8890751782326E-02
(PID.TID 0000.0001) %MON seaice_uice_min              =  -1.9271755147025E-02
(PID.TID 0000.0001) %MON seaice_uice_mean             =  -4.5203989672197E-07
(PID.TID 0000.0001) %MON seaice_uice_sd               =   8.1463560662751E-03
(PID.TID 0000.0001) %MON seaice_uice_del2             =   2.4833672055204E-06
(PID.TID 0000.0001) %MON seaice_vice_max              =   1.8450725688829E-02
(PID.TID 0000.0001) %MON seaice_vice_min              =  -1.8663257992453E-02
(PID.TID 0000.0001) %MON seaice_vice_mean             =   2.1300227805648E-06
(PID.TID 0000.0001) %MON seaice_vice_sd               =   8.1075491995142E-03
(PID.TID 0000.0001) %MON seaice_vice_del2             =   2.4901077752194E-06
(PID.TID 0000.0001) %MON seaice_area_max              =   1.0000000000000E+00
(PID.TID 0000.0001) %MON seaice_area_min              =   9.9999545668411E-01
(PID.TID 0000.0001) %MON seaice_area_mean             =   9.9999972563805E-01
(PID.TID 0000.0001) %MON seaice_area_sd               =   6.1146070668376E-07
(PID.TID 0000.0001) %MON seaice_area_del2             =   7.1100695525604E-09
(PID.TID 0000.0001) %MON seaice_heff_max              =   3.0999860020638E-01
(PID.TID 0000.0001) %MON seaice_heff_min              =   2.9006049090747E-01
(PID.TID 0000.0001) %MON seaice_heff_mean             =   3.0067126525963E-01
(PID.TID 0000.0001) %MON seaice_heff_sd               =   5.0069238829267E-03
(PID.TID 0000.0001) %MON seaice_heff_del2             =   1.2853744915916E-05
(PID.TID 0000.0001) %MON seaice_hsnow_max             =   0.0000000000000E+00
(PID.TID 0000.0001) %MON seaice_hsnow_min             =   0.0000000000000E+00
(PID.TID 0000.0001) %MON seaice_hsnow_mean            =   0.0000000000000E+00
(PID.TID 0000.0001) %MON seaice_hsnow_sd              =   0.0000000000000E+00
(PID.TID 0000.0001) %MON seaice_hsnow_del2            =   0.0000000000000E+00
(PID.TID 0000.0001) // =======================================================
(PID.TID 0000.0001) // End MONITOR SEAICE statistics
(PID.TID 0000.0001) // =======================================================
 Computing Diagnostic #    163  SIuice       Counter:       1   Parms: UU      M1      
           Vector  Mate for  SIuice       Diagnostic #    164  SIvice   exists 
 Computing Diagnostic #    164  SIvice       Counter:       1   Parms: VV      M1      
           Vector  Mate for  SIvice       Diagnostic #    163  SIuice   exists 
 Computing Diagnostic #    149  SIheff       Counter:       1   Parms: SM      M1      
 Computing Diagnostic #    146  SIarea       Counter:       1   Parms: SM      M1      
 Computing Diagnostic #    228  SIshear      Counter:       1   Parms: SM      M1      
 Computing Diagnostic #    233  SIcohes      Counter:       1   Parms: SM      M1      
 Computing Diagnostic #    221  SIsig1       Counter:       1   Parms: SM      M1      
 Computing Diagnostic #    222  SIsig2       Counter:       1   Parms: SM      M1      
 Computing Diagnostic #    231  SIdamage     Counter:       1   Parms: SM      M1      
 Computing Diagnostic #    165  SItaux       Counter:       1   Parms: UU      U1      
           Vector  Mate for  SItaux       Diagnostic #    166  SItauy   exists 
 Computing Diagnostic #    166  SItauy       Counter:       1   Parms: VV      U1      
           Vector  Mate for  SItauy       Diagnostic #    165  SItaux   exists 
 Computing Diagnostic #    133  EXFuwind     Counter:       1   Parms: UM      U1      
 Computing Diagnostic #    134  EXFvwind     Counter:       1   Parms: VM      U1      
(PID.TID 0000.0001)  S/R SEAICE_KRYLOV: Picard iterate / total, KRYLOVgamma_lin, initial norm =       1   1101 0.10000E+00 0.10966E+00
(PID.TID 0000.0001)  S/R SEAICE_KRYLOV: Picard iterate / total =      1 /   1101, Nb. of FGMRES iterations =      1
(PID.TID 0000.0001)  S/R SEAICE_KRYLOV: Picard iterate / total, KRYLOVgamma_lin, initial norm =       2   1102 0.50000E-01 0.19026E-03
(PID.TID 0000.0001)  S/R SEAICE_KRYLOV: Picard iterate / total =      2 /   1102, Nb. of FGMRES iterations =      1
(PID.TID 0000.0001)  S/R SEAICE_KRYLOV: Picard iterate / total, KRYLOVgamma_lin, initial norm =       3   1103 0.50000E-01 0.20249E-04
(PID.TID 0000.0001)  S/R SEAICE_KRYLOV: Picard iterate / total =      3 /   1103, Nb. of FGMRES iterations =      1
(PID.TID 0000.0001)  S/R SEAICE_KRYLOV: Picard iterate / total, KRYLOVgamma_lin, initial norm =       4   1104 0.33333E-01 0.14492E-04
(PID.TID 0000.0001)  S/R SEAICE_KRYLOV: Picard iterate / total =      4 /   1104, Nb. of FGMRES iterations =      1
(PID.TID 0000.0001)  S/R SEAICE_KRYLOV: Picard iterate / total, KRYLOVgamma_lin, initial norm =       5   1105 0.33333E-01 0.68302E-05
(PID.TID 0000.0001)  S/R SEAICE_KRYLOV: Picard iterate / total =      5 /   1105, Nb. of FGMRES iterations =      1
(PID.TID 0000.0001)  S/R SEAICE_KRYLOV: Picard iterate / total, KRYLOVgamma_lin, initial norm =       6   1106 0.33333E-01 0.34480E-05
(PID.TID 0000.0001)  S/R SEAICE_KRYLOV: Picard iterate / total =      6 /   1106, Nb. of FGMRES iterations =      1
(PID.TID 0000.0001)  S/R SEAICE_KRYLOV: Picard iterate / total, KRYLOVgamma_lin, initial norm =       7   1107 0.33333E-01 0.17213E-05
(PID.TID 0000.0001)  S/R SEAICE_KRYLOV: Picard iterate / total =      7 /   1107, Nb. of FGMRES iterations =      1
(PID.TID 0000.0001)  S/R SEAICE_KRYLOV: Picard iterate / total, KRYLOVgamma_lin, initial norm =       8   1108 0.25000E-01 0.86089E-06
(PID.TID 0000.0001)  S/R SEAICE_KRYLOV: Picard iterate / total =      8 /   1108, Nb. of FGMRES iterations =      1
(PID.TID 0000.0001)  S/R SEAICE_KRYLOV: Picard iterate / total, KRYLOVgamma_lin, initial norm =       9   1109 0.20000E-01 0.43043E-06
(PID.TID 0000.0001)  S/R SEAICE_KRYLOV: Picard iterate / total =      9 /   1109, Nb. of FGMRES iterations =      1
(PID.TID 0000.0001)  S/R SEAICE_KRYLOV: Picard iterate / total, KRYLOVgamma_lin, initial norm =      10   1110 0.12500E-01 0.21521E-06
(PID.TID 0000.0001)  S/R SEAICE_KRYLOV: Picard iterate / total =     10 /   1110, Nb. of FGMRES iterations =      1
(PID.TID 0000.0001)  S/R SEAICE_KRYLOV: Picard iterate / total, KRYLOVgamma_lin, initial norm =      11   1111 0.12500E-01 0.10761E-06
(PID.TID 0000.0001)  S/R SEAICE_KRYLOV: Picard iterate / total =     11 /   1111, Nb. of FGMRES iterations =      1
(PID.TID 0000.0001)  S/R SEAICE_KRYLOV: Picard iterate / total, KRYLOVgamma_lin, initial norm =      12   1112 0.12500E-01 0.53804E-07
(PID.TID 0000.0001)  S/R SEAICE_KRYLOV: Picard iterate / total =     12 /   1112, Nb. of FGMRES iterations =      1
(PID.TID 0000.0001)  S/R SEAICE_KRYLOV: Picard iterate / total, KRYLOVgamma_lin, initial norm =      13   1113 0.12500E-01 0.26902E-07
(PID.TID 0000.0001)  S/R SEAICE_KRYLOV: Picard iterate / total =     13 /   1113, Nb. of FGMRES iterations =      1
(PID.TID 0000.0001)  S/R SEAICE_KRYLOV: Picard iterate / total, KRYLOVgamma_lin, initial norm =      14   1114 0.12500E-01 0.13451E-07
(PID.TID 0000.0001)  S/R SEAICE_KRYLOV: Picard iterate / total =     14 /   1114, Nb. of FGMRES iterations =      1
(PID.TID 0000.0001)  S/R SEAICE_KRYLOV: Picard iterate / total, KRYLOVgamma_lin, initial norm =      15   1115 0.12500E-01 0.67254E-08
(PID.TID 0000.0001)  S/R SEAICE_KRYLOV: Picard iterate / total =     15 /   1115, Nb. of FGMRES iterations =      1
(PID.TID 0000.0001)  S/R SEAICE_KRYLOV: Picard iterate / total, KRYLOVgamma_lin, initial norm =      16   1116 0.12500E-01 0.33627E-08
(PID.TID 0000.0001)  S/R SEAICE_KRYLOV: Picard iterate / total =     16 /   1116, Nb. of FGMRES iterations =      1
(PID.TID 0000.0001)  S/R SEAICE_KRYLOV: Picard iterate / total, KRYLOVgamma_lin, initial norm =      17   1117 0.12500E-01 0.16814E-08
(PID.TID 0000.0001)  S/R SEAICE_KRYLOV: Picard iterate / total =     17 /   1117, Nb. of FGMRES iterations =      1
(PID.TID 0000.0001)  S/R SEAICE_KRYLOV: Picard iterate / total, KRYLOVgamma_lin, initial norm =      18   1118 0.12500E-01 0.84068E-09
(PID.TID 0000.0001)  S/R SEAICE_KRYLOV: Picard iterate / total =     18 /   1118, Nb. of FGMRES iterations =      1
(PID.TID 0000.0001)  S/R SEAICE_KRYLOV: Picard iterate / total, KRYLOVgamma_lin, initial norm =      19   1119 0.12500E-01 0.42034E-09
(PID.TID 0000.0001)  S/R SEAICE_KRYLOV: Picard iterate / total =     19 /   1119, Nb. of FGMRES iterations =      1
(PID.TID 0000.0001)  S/R SEAICE_KRYLOV: Picard iterate / total, KRYLOVgamma_lin, initial norm =      20   1120 0.12500E-01 0.21017E-09
(PID.TID 0000.0001)  S/R SEAICE_KRYLOV: Picard iterate / total =     20 /   1120, Nb. of FGMRES iterations =      1
(PID.TID 0000.0001)  S/R SEAICE_KRYLOV: Picard iterate / total, KRYLOVgamma_lin, initial norm =      21   1121 0.12500E-01 0.10508E-09
(PID.TID 0000.0001)  S/R SEAICE_KRYLOV: Picard iterate / total =     21 /   1121, Nb. of FGMRES iterations =      1
(PID.TID 0000.0001)  S/R SEAICE_KRYLOV: Picard iterate / total, KRYLOVgamma_lin, initial norm =      22   1122 0.12500E-01 0.52543E-10
(PID.TID 0000.0001)  S/R SEAICE_KRYLOV: Picard iterate / total =     22 /   1122, Nb. of FGMRES iterations =      1
(PID.TID 0000.0001)  S/R SEAICE_KRYLOV: Picard iterate / total, KRYLOVgamma_lin, initial norm =      23   1123 0.12500E-01 0.26271E-10
(PID.TID 0000.0001)  S/R SEAICE_KRYLOV: Picard iterate / total =     23 /   1123, Nb. of FGMRES iterations =      1
(PID.TID 0000.0001)  S/R SEAICE_KRYLOV: Picard iterate / total, KRYLOVgamma_lin, initial norm =      24   1124 0.12500E-01 0.13136E-10
(PID.TID 0000.0001)  S/R SEAICE_KRYLOV: Picard iterate / total =     24 /   1124, Nb. of FGMRES iterations =      1
(PID.TID 0000.0001)  S/R SEAICE_KRYLOV: Picard iterate / total, KRYLOVgamma_lin, initial norm =      25   1125 0.12500E-01 0.65678E-11
(PID.TID 0000.0001)  S/R SEAICE_KRYLOV: Picard iterate / total =     25 /   1125, Nb. of FGMRES iterations =      1
(PID.TID 0000.0001)  S/R SEAICE_KRYLOV: Picard iterate / total, KRYLOVgamma_lin, initial norm =      26   1126 0.12500E-01 0.32839E-11
(PID.TID 0000.0001)  S/R SEAICE_KRYLOV: Picard iterate / total =     26 /   1126, Nb. of FGMRES iterations =      1
(PID.TID 0000.0001)  S/R SEAICE_KRYLOV: Picard iterate / total, KRYLOVgamma_lin, initial norm =      27   1127 0.12500E-01 0.16420E-11
(PID.TID 0000.0001)  S/R SEAICE_KRYLOV: Picard iterate / total =     27 /   1127, Nb. of FGMRES iterations =      1
(PID.TID 0000.0001)  S/R SEAICE_KRYLOV: Picard iterate / total, KRYLOVgamma_lin, initial norm =      28   1128 0.12500E-01 0.82098E-12
(PID.TID 0000.0001)  S/R SEAICE_KRYLOV: Picard iterate / total =     28 /   1128, Nb. of FGMRES iterations =      1
(PID.TID 0000.0001)  S/R SEAICE_KRYLOV: Picard iterate / total, KRYLOVgamma_lin, initial norm =      29   1129 0.12500E-01 0.41049E-12
(PID.TID 0000.0001)  S/R SEAICE_KRYLOV: Picard iterate / total =     29 /   1129, Nb. of FGMRES iterations =      1
(PID.TID 0000.0001)  S/R SEAICE_KRYLOV: Picard iterate / total, KRYLOVgamma_lin, initial norm =      30   1130 0.12500E-01 0.20525E-12
(PID.TID 0000.0001)  S/R SEAICE_KRYLOV: Picard iterate / total =     30 /   1130, Nb. of FGMRES iterations =      1
(PID.TID 0000.0001)  S/R SEAICE_KRYLOV: Picard iterate / total, KRYLOVgamma_lin, final   norm =      31   1131 0.12500E-01 0.10262E-12
(PID.TID 0000.0001)  // =======================================================
(PID.TID 0000.0001)  // Begin KRYLOV statistics
(PID.TID 0000.0001)  // =======================================================
(PID.TID 0000.0001)  %KRYLOV_MON: time step              =         12
(PID.TID 0000.0001)  %KRYLOV_MON: Nb. of time steps      =          1
(PID.TID 0000.0001)  %KRYLOV_MON: Nb. of Picard steps    =         31
(PID.TID 0000.0001)  %KRYLOV_MON: Nb. of Krylov steps    =         30
(PID.TID 0000.0001)  %KRYLOV_MON: Nb. of Picard failures =          0
(PID.TID 0000.0001)  %KRYLOV_MON: Nb. of Krylov failures =          0
(PID.TID 0000.0001)  // =======================================================
(PID.TID 0000.0001)  // End KRYLOV statistics
(PID.TID 0000.0001)  // =======================================================
(PID.TID 0000.0001)  S/R SEAICE_KRYLOV: Total number FGMRES iterations =     30 in timestep         12
(PID.TID 0000.0001) // =======================================================
(PID.TID 0000.0001) // Begin MONITOR dynamic field statistics
(PID.TID 0000.0001) // =======================================================
(PID.TID 0000.0001) %MON time_tsnumber                =                    12
(PID.TID 0000.0001) %MON time_secondsf                =   3.0000000000000E+01
(PID.TID 0000.0001) %MON dynstat_eta_max              =   0.0000000000000E+00
(PID.TID 0000.0001) %MON dynstat_eta_min              =   0.0000000000000E+00
(PID.TID 0000.0001) %MON dynstat_eta_mean             =   0.0000000000000E+00
(PID.TID 0000.0001) %MON dynstat_eta_sd               =   0.0000000000000E+00
(PID.TID 0000.0001) %MON dynstat_eta_del2             =   0.0000000000000E+00
(PID.TID 0000.0001) %MON dynstat_uvel_max             =   9.8437500000000E-03
(PID.TID 0000.0001) %MON dynstat_uvel_min             =  -9.8437500000000E-03
(PID.TID 0000.0001) %MON dynstat_uvel_mean            =   0.0000000000000E+00
(PID.TID 0000.0001) %MON dynstat_uvel_sd              =   5.7727978755972E-03
(PID.TID 0000.0001) %MON dynstat_uvel_del2            =   1.0089048364799E-20
(PID.TID 0000.0001) %MON dynstat_vvel_max             =   9.8437500000000E-03
(PID.TID 0000.0001) %MON dynstat_vvel_min             =  -9.8437500000000E-03
(PID.TID 0000.0001) %MON dynstat_vvel_mean            =   0.0000000000000E+00
(PID.TID 0000.0001) %MON dynstat_vvel_sd              =   5.7727978755972E-03
(PID.TID 0000.0001) %MON dynstat_vvel_del2            =   1.0089048364799E-20
(PID.TID 0000.0001) %MON dynstat_wvel_max             =   1.1914062500000E-05
(PID.TID 0000.0001) %MON dynstat_wvel_min             =  -1.1914062500000E-05
(PID.TID 0000.0001) %MON dynstat_wvel_mean            =   3.4694469519536E-25
(PID.TID 0000.0001) %MON dynstat_wvel_sd              =   1.7200872247780E-06
(PID.TID 0000.0001) %MON dynstat_wvel_del2            =   2.8187489626940E-08
(PID.TID 0000.0001) %MON dynstat_theta_max            =  -1.6200000000000E+00
(PID.TID 0000.0001) %MON dynstat_theta_min            =  -1.6200000000000E+00
(PID.TID 0000.0001) %MON dynstat_theta_mean           =  -1.6200000000000E+00
(PID.TID 0000.0001) %MON dynstat_theta_sd             =   0.0000000000000E+00
(PID.TID 0000.0001) %MON dynstat_theta_del2           =   0.0000000000000E+00
(PID.TID 0000.0001) %MON dynstat_salt_max             =   3.0000000000000E+01
(PID.TID 0000.0001) %MON dynstat_salt_min             =   3.0000000000000E+01
(PID.TID 0000.0001) %MON dynstat_salt_mean            =   3.0000000000000E+01
(PID.TID 0000.0001) %MON dynstat_salt_sd              =   0.0000000000000E+00
(PID.TID 0000.0001) %MON dynstat_salt_del2            =   0.0000000000000E+00
(PID.TID 0000.0001) %MON trAdv_CFL_u_max              =   3.0761718750000E-06
(PID.TID 0000.0001) %MON trAdv_CFL_v_max              =   3.0761718750000E-06
(PID.TID 0000.0001) %MON trAdv_CFL_w_max              =   2.9785156250000E-06
(PID.TID 0000.0001) %MON advcfl_uvel_max              =   3.0761718750000E-06
(PID.TID 0000.0001) %MON advcfl_vvel_max              =   3.0761718750000E-06
(PID.TID 0000.0001) %MON advcfl_wvel_max              =   5.9570312500000E-06
(PID.TID 0000.0001) %MON advcfl_W_hf_max              =   0.0000000000000E+00
(PID.TID 0000.0001) %MON pe_b_mean                    =   0.0000000000000E+00
(PID.TID 0000.0001) %MON ke_max                       =   9.0844726562500E-05
(PID.TID 0000.0001) %MON ke_mean                      =   3.2804489135742E-05
(PID.TID 0000.0001) %MON ke_vol                       =   2.6214400000000E+12
(PID.TID 0000.0001) %MON vort_r_min                   =  -7.8125000000000E-08
(PID.TID 0000.0001) %MON vort_r_max                   =   1.2304687500000E-06
(PID.TID 0000.0001) %MON vort_a_mean                  =   1.4856000000000E-04
(PID.TID 0000.0001) %MON vort_a_sd                    =   1.5312918562496E-06
(PID.TID 0000.0001) %MON vort_p_mean                  =   1.5552375000000E-04
(PID.TID 0000.0001) %MON vort_p_sd                    =   5.5921473110222E-05
(PID.TID 0000.0001) %MON surfExpan_theta_mean         =   0.0000000000000E+00
(PID.TID 0000.0001) %MON surfExpan_salt_mean          =   1.3877787807814E-23
(PID.TID 0000.0001) // =======================================================
(PID.TID 0000.0001) // End MONITOR dynamic field statistics
(PID.TID 0000.0001) // =======================================================
(PID.TID 0000.0001) // =======================================================
(PID.TID 0000.0001) // Begin MONITOR SEAICE statistics
(PID.TID 0000.0001) // =======================================================
(PID.TID 0000.0001) %MON seaice_tsnumber              =                    12
(PID.TID 0000.0001) %MON seaice_time_sec              =   3.0000000000000E+01
(PID.TID 0000.0001) %MON seaice_uice_max              =   2.0599952777817E-02
(PID.TID 0000.0001) %MON seaice_uice_min              =  -2.0991478357650E-02
(PID.TID 0000.0001) %MON seaice_uice_mean             =  -5.0215603223075E-07
(PID.TID 0000.0001) %MON seaice_uice_sd               =   8.8712809956533E-03
(PID.TID 0000.0001) %MON seaice_uice_del2             =   2.6904823536103E-06
(PID.TID 0000.0001) %MON seaice_vice_max              =   2.0103570616222E-02
(PID.TID 0000.0001) %MON seaice_vice_min              =  -2.0333618688735E-02
(PID.TID 0000.0001) %MON seaice_vice_mean             =   2.3380002305830E-06
(PID.TID 0000.0001) %MON seaice_vice_sd               =   8.8292388413965E-03
(PID.TID 0000.0001) %MON seaice_vice_del2             =   2.6980066316143E-06
(PID.TID 0000.0001) %MON seaice_area_max              =   1.0000000000000E+00
(PID.TID 0000.0001) %MON seaice_area_min              =   9.9999461126402E-01
(PID.TID 0000.0001) %MON seaice_area_mean             =   9.9999967661405E-01
(PID.TID 0000.0001) %MON seaice_area_sd               =   7.2449574758388E-07
(PID.TID 0000.0001) %MON seaice_area_del2             =   8.5455593334399E-09
(PID.TID 0000.0001) %MON seaice_heff_max              =   3.0999858709420E-01
(PID.TID 0000.0001) %MON seaice_heff_min              =   2.9006047741464E-01
(PID.TID 0000.0001) %MON seaice_heff_mean             =   3.0067126525963E-01
(PID.TID 0000.0001) %MON seaice_heff_sd               =   5.0069240932629E-03
(PID.TID 0000.0001) %MON seaice_heff_del2             =   1.2853744010466E-05
(PID.TID 0000.0001) %MON seaice_hsnow_max             =   0.0000000000000E+00
(PID.TID 0000.0001) %MON seaice_hsnow_min             =   0.0000000000000E+00
(PID.TID 0000.0001) %MON seaice_hsnow_mean            =   0.0000000000000E+00
(PID.TID 0000.0001) %MON seaice_hsnow_sd              =   0.0000000000000E+00
(PID.TID 0000.0001) %MON seaice_hsnow_del2            =   0.0000000000000E+00
(PID.TID 0000.0001) // =======================================================
(PID.TID 0000.0001) // End MONITOR SEAICE statistics
(PID.TID 0000.0001) // =======================================================
 Computing Diagnostic #    163  SIuice       Counter:       1   Parms: UU      M1      
           Vector  Mate for  SIuice       Diagnostic #    164  SIvice   exists 
 Computing Diagnostic #    164  SIvice       Counter:       1   Parms: VV      M1      
           Vector  Mate for  SIvice       Diagnostic #    163  SIuice   exists 
 Computing Diagnostic #    149  SIheff       Counter:       1   Parms: SM      M1      
 Computing Diagnostic #    146  SIarea       Counter:       1   Parms: SM      M1      
 Computing Diagnostic #    228  SIshear      Counter:       1   Parms: SM      M1      
 Computing Diagnostic #    233  SIcohes      Counter:       1   Parms: SM      M1      
 Computing Diagnostic #    221  SIsig1       Counter:       1   Parms: SM      M1      
 Computing Diagnostic #    222  SIsig2       Counter:       1   Parms: SM      M1      
 Computing Diagnostic #    231  SIdamage     Counter:       1   Parms: SM      M1      
 Computing Diagnostic #    165  SItaux       Counter:       1   Parms: UU      U1      
           Vector  Mate for  SItaux       Diagnostic #    166  SItauy   exists 
 Computing Diagnostic #    166  SItauy       Counter:       1   Parms: VV      U1      
           Vector  Mate for  SItauy       Diagnostic #    165  SItaux   exists 
 Computing Diagnostic #    133  EXFuwind     Counter:       1   Parms: UM      U1      
 Computing Diagnostic #    134  EXFvwind     Counter:       1   Parms: VM      U1      
(PID.TID 0000.0001)  S/R SEAICE_KRYLOV: Picard iterate / total, KRYLOVgamma_lin, initial norm =       1   1201 0.10000E+00 0.10935E+00
(PID.TID 0000.0001)  S/R SEAICE_KRYLOV: Picard iterate / total =      1 /   1201, Nb. of FGMRES iterations =      1
(PID.TID 0000.0001)  S/R SEAICE_KRYLOV: Picard iterate / total, KRYLOVgamma_lin, initial norm =       2   1202 0.50000E-01 0.17797E-03
(PID.TID 0000.0001)  S/R SEAICE_KRYLOV: Picard iterate / total =      2 /   1202, Nb. of FGMRES iterations =      1
(PID.TID 0000.0001)  S/R SEAICE_KRYLOV: Picard iterate / total, KRYLOVgamma_lin, initial norm =       3   1203 0.50000E-01 0.20497E-04
(PID.TID 0000.0001)  S/R SEAICE_KRYLOV: Picard iterate / total =      3 /   1203, Nb. of FGMRES iterations =      1
(PID.TID 0000.0001)  S/R SEAICE_KRYLOV: Picard iterate / total, KRYLOVgamma_lin, initial norm =       4   1204 0.33333E-01 0.13911E-04
(PID.TID 0000.0001)  S/R SEAICE_KRYLOV: Picard iterate / total =      4 /   1204, Nb. of FGMRES iterations =      1
(PID.TID 0000.0001)  S/R SEAICE_KRYLOV: Picard iterate / total, KRYLOVgamma_lin, initial norm =       5   1205 0.33333E-01 0.66049E-05
(PID.TID 0000.0001)  S/R SEAICE_KRYLOV: Picard iterate / total =      5 /   1205, Nb. of FGMRES iterations =      1
(PID.TID 0000.0001)  S/R SEAICE_KRYLOV: Picard iterate / total, KRYLOVgamma_lin, initial norm =       6   1206 0.33333E-01 0.33296E-05
(PID.TID 0000.0001)  S/R SEAICE_KRYLOV: Picard iterate / total =      6 /   1206, Nb. of FGMRES iterations =      1
(PID.TID 0000.0001)  S/R SEAICE_KRYLOV: Picard iterate / total, KRYLOVgamma_lin, initial norm =       7   1207 0.33333E-01 0.16626E-05
(PID.TID 0000.0001)  S/R SEAICE_KRYLOV: Picard iterate / total =      7 /   1207, Nb. of FGMRES iterations =      1
(PID.TID 0000.0001)  S/R SEAICE_KRYLOV: Picard iterate / total, KRYLOVgamma_lin, initial norm =       8   1208 0.25000E-01 0.83150E-06
(PID.TID 0000.0001)  S/R SEAICE_KRYLOV: Picard iterate / total =      8 /   1208, Nb. of FGMRES iterations =      1
(PID.TID 0000.0001)  S/R SEAICE_KRYLOV: Picard iterate / total, KRYLOVgamma_lin, initial norm =       9   1209 0.20000E-01 0.41573E-06
(PID.TID 0000.0001)  S/R SEAICE_KRYLOV: Picard iterate / total =      9 /   1209, Nb. of FGMRES iterations =      1
(PID.TID 0000.0001)  S/R SEAICE_KRYLOV: Picard iterate / total, KRYLOVgamma_lin, initial norm =      10   1210 0.12500E-01 0.20787E-06
(PID.TID 0000.0001)  S/R SEAICE_KRYLOV: Picard iterate / total =     10 /   1210, Nb. of FGMRES iterations =      1
(PID.TID 0000.0001)  S/R SEAICE_KRYLOV: Picard iterate / total, KRYLOVgamma_lin, initial norm =      11   1211 0.12500E-01 0.10393E-06
(PID.TID 0000.0001)  S/R SEAICE_KRYLOV: Picard iterate / total =     11 /   1211, Nb. of FGMRES iterations =      1
(PID.TID 0000.0001)  S/R SEAICE_KRYLOV: Picard iterate / total, KRYLOVgamma_lin, initial norm =      12   1212 0.12500E-01 0.51967E-07
(PID.TID 0000.0001)  S/R SEAICE_KRYLOV: Picard iterate / total =     12 /   1212, Nb. of FGMRES iterations =      1
(PID.TID 0000.0001)  S/R SEAICE_KRYLOV: Picard iterate / total, KRYLOVgamma_lin, initial norm =      13   1213 0.12500E-01 0.25983E-07
(PID.TID 0000.0001)  S/R SEAICE_KRYLOV: Picard iterate / total =     13 /   1213, Nb. of FGMRES iterations =      1
(PID.TID 0000.0001)  S/R SEAICE_KRYLOV: Picard iterate / total, KRYLOVgamma_lin, initial norm =      14   1214 0.12500E-01 0.12992E-07
(PID.TID 0000.0001)  S/R SEAICE_KRYLOV: Picard iterate / total =     14 /   1214, Nb. of FGMRES iterations =      1
(PID.TID 0000.0001)  S/R SEAICE_KRYLOV: Picard iterate / total, KRYLOVgamma_lin, initial norm =      15   1215 0.12500E-01 0.64959E-08
(PID.TID 0000.0001)  S/R SEAICE_KRYLOV: Picard iterate / total =     15 /   1215, Nb. of FGMRES iterations =      1
(PID.TID 0000.0001)  S/R SEAICE_KRYLOV: Picard iterate / total, KRYLOVgamma_lin, initial norm =      16   1216 0.12500E-01 0.32479E-08
(PID.TID 0000.0001)  S/R SEAICE_KRYLOV: Picard iterate / total =     16 /   1216, Nb. of FGMRES iterations =      1
(PID.TID 0000.0001)  S/R SEAICE_KRYLOV: Picard iterate / total, KRYLOVgamma_lin, initial norm =      17   1217 0.12500E-01 0.16240E-08
(PID.TID 0000.0001)  S/R SEAICE_KRYLOV: Picard iterate / total =     17 /   1217, Nb. of FGMRES iterations =      1
(PID.TID 0000.0001)  S/R SEAICE_KRYLOV: Picard iterate / total, KRYLOVgamma_lin, initial norm =      18   1218 0.12500E-01 0.81198E-09
(PID.TID 0000.0001)  S/R SEAICE_KRYLOV: Picard iterate / total =     18 /   1218, Nb. of FGMRES iterations =      1
(PID.TID 0000.0001)  S/R SEAICE_KRYLOV: Picard iterate / total, KRYLOVgamma_lin, initial norm =      19   1219 0.12500E-01 0.40599E-09
(PID.TID 0000.0001)  S/R SEAICE_KRYLOV: Picard iterate / total =     19 /   1219, Nb. of FGMRES iterations =      1
(PID.TID 0000.0001)  S/R SEAICE_KRYLOV: Picard iterate / total, KRYLOVgamma_lin, initial norm =      20   1220 0.12500E-01 0.20300E-09
(PID.TID 0000.0001)  S/R SEAICE_KRYLOV: Picard iterate / total =     20 /   1220, Nb. of FGMRES iterations =      1
(PID.TID 0000.0001)  S/R SEAICE_KRYLOV: Picard iterate / total, KRYLOVgamma_lin, initial norm =      21   1221 0.12500E-01 0.10150E-09
(PID.TID 0000.0001)  S/R SEAICE_KRYLOV: Picard iterate / total =     21 /   1221, Nb. of FGMRES iterations =      1
(PID.TID 0000.0001)  S/R SEAICE_KRYLOV: Picard iterate / total, KRYLOVgamma_lin, initial norm =      22   1222 0.12500E-01 0.50749E-10
(PID.TID 0000.0001)  S/R SEAICE_KRYLOV: Picard iterate / total =     22 /   1222, Nb. of FGMRES iterations =      1
(PID.TID 0000.0001)  S/R SEAICE_KRYLOV: Picard iterate / total, KRYLOVgamma_lin, initial norm =      23   1223 0.12500E-01 0.25374E-10
(PID.TID 0000.0001)  S/R SEAICE_KRYLOV: Picard iterate / total =     23 /   1223, Nb. of FGMRES iterations =      1
(PID.TID 0000.0001)  S/R SEAICE_KRYLOV: Picard iterate / total, KRYLOVgamma_lin, initial norm =      24   1224 0.12500E-01 0.12687E-10
(PID.TID 0000.0001)  S/R SEAICE_KRYLOV: Picard iterate / total =     24 /   1224, Nb. of FGMRES iterations =      1
(PID.TID 0000.0001)  S/R SEAICE_KRYLOV: Picard iterate / total, KRYLOVgamma_lin, initial norm =      25   1225 0.12500E-01 0.63436E-11
(PID.TID 0000.0001)  S/R SEAICE_KRYLOV: Picard iterate / total =     25 /   1225, Nb. of FGMRES iterations =      1
(PID.TID 0000.0001)  S/R SEAICE_KRYLOV: Picard iterate / total, KRYLOVgamma_lin, initial norm =      26   1226 0.12500E-01 0.31718E-11
(PID.TID 0000.0001)  S/R SEAICE_KRYLOV: Picard iterate / total =     26 /   1226, Nb. of FGMRES iterations =      1
(PID.TID 0000.0001)  S/R SEAICE_KRYLOV: Picard iterate / total, KRYLOVgamma_lin, initial norm =      27   1227 0.12500E-01 0.15859E-11
(PID.TID 0000.0001)  S/R SEAICE_KRYLOV: Picard iterate / total =     27 /   1227, Nb. of FGMRES iterations =      1
(PID.TID 0000.0001)  S/R SEAICE_KRYLOV: Picard iterate / total, KRYLOVgamma_lin, initial norm =      28   1228 0.12500E-01 0.79296E-12
(PID.TID 0000.0001)  S/R SEAICE_KRYLOV: Picard iterate / total =     28 /   1228, Nb. of FGMRES iterations =      1
(PID.TID 0000.0001)  S/R SEAICE_KRYLOV: Picard iterate / total, KRYLOVgamma_lin, initial norm =      29   1229 0.12500E-01 0.39647E-12
(PID.TID 0000.0001)  S/R SEAICE_KRYLOV: Picard iterate / total =     29 /   1229, Nb. of FGMRES iterations =      1
(PID.TID 0000.0001)  S/R SEAICE_KRYLOV: Picard iterate / total, KRYLOVgamma_lin, initial norm =      30   1230 0.12500E-01 0.19824E-12
(PID.TID 0000.0001)  S/R SEAICE_KRYLOV: Picard iterate / total =     30 /   1230, Nb. of FGMRES iterations =      1
(PID.TID 0000.0001)  S/R SEAICE_KRYLOV: Picard iterate / total, KRYLOVgamma_lin, final   norm =      31   1231 0.12500E-01 0.99118E-13
(PID.TID 0000.0001)  // =======================================================
(PID.TID 0000.0001)  // Begin KRYLOV statistics
(PID.TID 0000.0001)  // =======================================================
(PID.TID 0000.0001)  %KRYLOV_MON: time step              =         13
(PID.TID 0000.0001)  %KRYLOV_MON: Nb. of time steps      =          1
(PID.TID 0000.0001)  %KRYLOV_MON: Nb. of Picard steps    =         31
(PID.TID 0000.0001)  %KRYLOV_MON: Nb. of Krylov steps    =         30
(PID.TID 0000.0001)  %KRYLOV_MON: Nb. of Picard failures =          0
(PID.TID 0000.0001)  %KRYLOV_MON: Nb. of Krylov failures =          0
(PID.TID 0000.0001)  // =======================================================
(PID.TID 0000.0001)  // End KRYLOV statistics
(PID.TID 0000.0001)  // =======================================================
(PID.TID 0000.0001)  S/R SEAICE_KRYLOV: Total number FGMRES iterations =     30 in timestep         13
(PID.TID 0000.0001) // =======================================================
(PID.TID 0000.0001) // Begin MONITOR dynamic field statistics
(PID.TID 0000.0001) // =======================================================
(PID.TID 0000.0001) %MON time_tsnumber                =                    13
(PID.TID 0000.0001) %MON time_secondsf                =   3.2500000000000E+01
(PID.TID 0000.0001) %MON dynstat_eta_max              =   0.0000000000000E+00
(PID.TID 0000.0001) %MON dynstat_eta_min              =   0.0000000000000E+00
(PID.TID 0000.0001) %MON dynstat_eta_mean             =   0.0000000000000E+00
(PID.TID 0000.0001) %MON dynstat_eta_sd               =   0.0000000000000E+00
(PID.TID 0000.0001) %MON dynstat_eta_del2             =   0.0000000000000E+00
(PID.TID 0000.0001) %MON dynstat_uvel_max             =   9.8437500000000E-03
(PID.TID 0000.0001) %MON dynstat_uvel_min             =  -9.8437500000000E-03
(PID.TID 0000.0001) %MON dynstat_uvel_mean            =   0.0000000000000E+00
(PID.TID 0000.0001) %MON dynstat_uvel_sd              =   5.7727978755972E-03
(PID.TID 0000.0001) %MON dynstat_uvel_del2            =   1.0089048364799E-20
(PID.TID 0000.0001) %MON dynstat_vvel_max             =   9.8437500000000E-03
(PID.TID 0000.0001) %MON dynstat_vvel_min             =  -9.8437500000000E-03
(PID.TID 0000.0001) %MON dynstat_vvel_mean            =   0.0000000000000E+00
(PID.TID 0000.0001) %MON dynstat_vvel_sd              =   5.7727978755972E-03
(PID.TID 0000.0001) %MON dynstat_vvel_del2            =   1.0089048364799E-20
(PID.TID 0000.0001) %MON dynstat_wvel_max             =   1.1914062500000E-05
(PID.TID 0000.0001) %MON dynstat_wvel_min             =  -1.1914062500000E-05
(PID.TID 0000.0001) %MON dynstat_wvel_mean            =   3.4694469519536E-25
(PID.TID 0000.0001) %MON dynstat_wvel_sd              =   1.7200872247780E-06
(PID.TID 0000.0001) %MON dynstat_wvel_del2            =   2.8187489626940E-08
(PID.TID 0000.0001) %MON dynstat_theta_max            =  -1.6200000000000E+00
(PID.TID 0000.0001) %MON dynstat_theta_min            =  -1.6200000000000E+00
(PID.TID 0000.0001) %MON dynstat_theta_mean           =  -1.6200000000000E+00
(PID.TID 0000.0001) %MON dynstat_theta_sd             =   0.0000000000000E+00
(PID.TID 0000.0001) %MON dynstat_theta_del2           =   0.0000000000000E+00
(PID.TID 0000.0001) %MON dynstat_salt_max             =   3.0000000000000E+01
(PID.TID 0000.0001) %MON dynstat_salt_min             =   3.0000000000000E+01
(PID.TID 0000.0001) %MON dynstat_salt_mean            =   3.0000000000000E+01
(PID.TID 0000.0001) %MON dynstat_salt_sd              =   0.0000000000000E+00
(PID.TID 0000.0001) %MON dynstat_salt_del2            =   0.0000000000000E+00
(PID.TID 0000.0001) %MON trAdv_CFL_u_max              =   3.0761718750000E-06
(PID.TID 0000.0001) %MON trAdv_CFL_v_max              =   3.0761718750000E-06
(PID.TID 0000.0001) %MON trAdv_CFL_w_max              =   2.9785156250000E-06
(PID.TID 0000.0001) %MON advcfl_uvel_max              =   3.0761718750000E-06
(PID.TID 0000.0001) %MON advcfl_vvel_max              =   3.0761718750000E-06
(PID.TID 0000.0001) %MON advcfl_wvel_max              =   5.9570312500000E-06
(PID.TID 0000.0001) %MON advcfl_W_hf_max              =   0.0000000000000E+00
(PID.TID 0000.0001) %MON pe_b_mean                    =   0.0000000000000E+00
(PID.TID 0000.0001) %MON ke_max                       =   9.0844726562500E-05
(PID.TID 0000.0001) %MON ke_mean                      =   3.2804489135742E-05
(PID.TID 0000.0001) %MON ke_vol                       =   2.6214400000000E+12
(PID.TID 0000.0001) %MON vort_r_min                   =  -7.8125000000000E-08
(PID.TID 0000.0001) %MON vort_r_max                   =   1.2304687500000E-06
(PID.TID 0000.0001) %MON vort_a_mean                  =   1.4856000000000E-04
(PID.TID 0000.0001) %MON vort_a_sd                    =   1.5312918562496E-06
(PID.TID 0000.0001) %MON vort_p_mean                  =   1.5552375000000E-04
(PID.TID 0000.0001) %MON vort_p_sd                    =   5.5921473110222E-05
(PID.TID 0000.0001) %MON surfExpan_theta_mean         =   0.0000000000000E+00
(PID.TID 0000.0001) %MON surfExpan_salt_mean          =   1.3877787807814E-23
(PID.TID 0000.0001) // =======================================================
(PID.TID 0000.0001) // End MONITOR dynamic field statistics
(PID.TID 0000.0001) // =======================================================
(PID.TID 0000.0001) // =======================================================
(PID.TID 0000.0001) // Begin MONITOR SEAICE statistics
(PID.TID 0000.0001) // =======================================================
(PID.TID 0000.0001) %MON seaice_tsnumber              =                    13
(PID.TID 0000.0001) %MON seaice_time_sec              =   3.2500000000000E+01
(PID.TID 0000.0001) %MON seaice_uice_max              =   2.2306086672641E-02
(PID.TID 0000.0001) %MON seaice_uice_min              =  -2.2706880387334E-02
(PID.TID 0000.0001) %MON seaice_uice_mean             =  -5.5471923277353E-07
(PID.TID 0000.0001) %MON seaice_uice_sd               =   9.5941208526456E-03
(PID.TID 0000.0001) %MON seaice_uice_del2             =   2.8942109555228E-06
(PID.TID 0000.0001) %MON seaice_vice_max              =   2.1759556470977E-02
(PID.TID 0000.0001) %MON seaice_vice_min              =  -2.2013702646070E-02
(PID.TID 0000.0001) %MON seaice_vice_mean             =   2.5435173772778E-06
(PID.TID 0000.0001) %MON seaice_vice_sd               =   9.5488816731029E-03
(PID.TID 0000.0001) %MON seaice_vice_del2             =   2.9024272778773E-06
(PID.TID 0000.0001) %MON seaice_area_max              =   1.0000000000000E+00
(PID.TID 0000.0001) %MON seaice_area_min              =   9.9999369141426E-01
(PID.TID 0000.0001) %MON seaice_area_mean             =   9.9999962361196E-01
(PID.TID 0000.0001) %MON seaice_area_sd               =   8.4754880849305E-07
(PID.TID 0000.0001) %MON seaice_area_del2             =   1.0106708112717E-08
(PID.TID 0000.0001) %MON seaice_heff_max              =   3.0999857289823E-01
(PID.TID 0000.0001) %MON seaice_heff_min              =   2.9006046281374E-01
(PID.TID 0000.0001) %MON seaice_heff_mean             =   3.0067126525963E-01
(PID.TID 0000.0001) %MON seaice_heff_sd               =   5.0069243060471E-03
(PID.TID 0000.0001) %MON seaice_heff_del2             =   1.2853743094930E-05
(PID.TID 0000.0001) %MON seaice_hsnow_max             =   0.0000000000000E+00
(PID.TID 0000.0001) %MON seaice_hsnow_min             =   0.0000000000000E+00
(PID.TID 0000.0001) %MON seaice_hsnow_mean            =   0.0000000000000E+00
(PID.TID 0000.0001) %MON seaice_hsnow_sd              =   0.0000000000000E+00
(PID.TID 0000.0001) %MON seaice_hsnow_del2            =   0.0000000000000E+00
(PID.TID 0000.0001) // =======================================================
(PID.TID 0000.0001) // End MONITOR SEAICE statistics
(PID.TID 0000.0001) // =======================================================
 Computing Diagnostic #    163  SIuice       Counter:       1   Parms: UU      M1      
           Vector  Mate for  SIuice       Diagnostic #    164  SIvice   exists 
 Computing Diagnostic #    164  SIvice       Counter:       1   Parms: VV      M1      
           Vector  Mate for  SIvice       Diagnostic #    163  SIuice   exists 
 Computing Diagnostic #    149  SIheff       Counter:       1   Parms: SM      M1      
 Computing Diagnostic #    146  SIarea       Counter:       1   Parms: SM      M1      
 Computing Diagnostic #    228  SIshear      Counter:       1   Parms: SM      M1      
 Computing Diagnostic #    233  SIcohes      Counter:       1   Parms: SM      M1      
 Computing Diagnostic #    221  SIsig1       Counter:       1   Parms: SM      M1      
 Computing Diagnostic #    222  SIsig2       Counter:       1   Parms: SM      M1      
 Computing Diagnostic #    231  SIdamage     Counter:       1   Parms: SM      M1      
 Computing Diagnostic #    165  SItaux       Counter:       1   Parms: UU      U1      
           Vector  Mate for  SItaux       Diagnostic #    166  SItauy   exists 
 Computing Diagnostic #    166  SItauy       Counter:       1   Parms: VV      U1      
           Vector  Mate for  SItauy       Diagnostic #    165  SItaux   exists 
 Computing Diagnostic #    133  EXFuwind     Counter:       1   Parms: UM      U1      
 Computing Diagnostic #    134  EXFvwind     Counter:       1   Parms: VM      U1      
(PID.TID 0000.0001)  S/R SEAICE_KRYLOV: Picard iterate / total, KRYLOVgamma_lin, initial norm =       1   1301 0.10000E+00 0.10904E+00
(PID.TID 0000.0001)  S/R SEAICE_KRYLOV: Picard iterate / total =      1 /   1301, Nb. of FGMRES iterations =      1
(PID.TID 0000.0001)  S/R SEAICE_KRYLOV: Picard iterate / total, KRYLOVgamma_lin, initial norm =       2   1302 0.50000E-01 0.16777E-03
(PID.TID 0000.0001)  S/R SEAICE_KRYLOV: Picard iterate / total =      2 /   1302, Nb. of FGMRES iterations =      1
(PID.TID 0000.0001)  S/R SEAICE_KRYLOV: Picard iterate / total, KRYLOVgamma_lin, initial norm =       3   1303 0.50000E-01 0.24404E-04
(PID.TID 0000.0001)  S/R SEAICE_KRYLOV: Picard iterate / total =      3 /   1303, Nb. of FGMRES iterations =      1
(PID.TID 0000.0001)  S/R SEAICE_KRYLOV: Picard iterate / total, KRYLOVgamma_lin, initial norm =       4   1304 0.33333E-01 0.14874E-04
(PID.TID 0000.0001)  S/R SEAICE_KRYLOV: Picard iterate / total =      4 /   1304, Nb. of FGMRES iterations =      1
(PID.TID 0000.0001)  S/R SEAICE_KRYLOV: Picard iterate / total, KRYLOVgamma_lin, initial norm =       5   1305 0.33333E-01 0.71740E-05
(PID.TID 0000.0001)  S/R SEAICE_KRYLOV: Picard iterate / total =      5 /   1305, Nb. of FGMRES iterations =      1
(PID.TID 0000.0001)  S/R SEAICE_KRYLOV: Picard iterate / total, KRYLOVgamma_lin, initial norm =       6   1306 0.33333E-01 0.36069E-05
(PID.TID 0000.0001)  S/R SEAICE_KRYLOV: Picard iterate / total =      6 /   1306, Nb. of FGMRES iterations =      1
(PID.TID 0000.0001)  S/R SEAICE_KRYLOV: Picard iterate / total, KRYLOVgamma_lin, initial norm =       7   1307 0.33333E-01 0.18019E-05
(PID.TID 0000.0001)  S/R SEAICE_KRYLOV: Picard iterate / total =      7 /   1307, Nb. of FGMRES iterations =      1
(PID.TID 0000.0001)  S/R SEAICE_KRYLOV: Picard iterate / total, KRYLOVgamma_lin, initial norm =       8   1308 0.25000E-01 0.90107E-06
(PID.TID 0000.0001)  S/R SEAICE_KRYLOV: Picard iterate / total =      8 /   1308, Nb. of FGMRES iterations =      1
(PID.TID 0000.0001)  S/R SEAICE_KRYLOV: Picard iterate / total, KRYLOVgamma_lin, initial norm =       9   1309 0.20000E-01 0.45052E-06
(PID.TID 0000.0001)  S/R SEAICE_KRYLOV: Picard iterate / total =      9 /   1309, Nb. of FGMRES iterations =      1
(PID.TID 0000.0001)  S/R SEAICE_KRYLOV: Picard iterate / total, KRYLOVgamma_lin, initial norm =      10   1310 0.12500E-01 0.22526E-06
(PID.TID 0000.0001)  S/R SEAICE_KRYLOV: Picard iterate / total =     10 /   1310, Nb. of FGMRES iterations =      1
(PID.TID 0000.0001)  S/R SEAICE_KRYLOV: Picard iterate / total, KRYLOVgamma_lin, initial norm =      11   1311 0.12500E-01 0.11263E-06
(PID.TID 0000.0001)  S/R SEAICE_KRYLOV: Picard iterate / total =     11 /   1311, Nb. of FGMRES iterations =      1
(PID.TID 0000.0001)  S/R SEAICE_KRYLOV: Picard iterate / total, KRYLOVgamma_lin, initial norm =      12   1312 0.12500E-01 0.56316E-07
(PID.TID 0000.0001)  S/R SEAICE_KRYLOV: Picard iterate / total =     12 /   1312, Nb. of FGMRES iterations =      1
(PID.TID 0000.0001)  S/R SEAICE_KRYLOV: Picard iterate / total, KRYLOVgamma_lin, initial norm =      13   1313 0.12500E-01 0.28158E-07
(PID.TID 0000.0001)  S/R SEAICE_KRYLOV: Picard iterate / total =     13 /   1313, Nb. of FGMRES iterations =      1
(PID.TID 0000.0001)  S/R SEAICE_KRYLOV: Picard iterate / total, KRYLOVgamma_lin, initial norm =      14   1314 0.12500E-01 0.14079E-07
(PID.TID 0000.0001)  S/R SEAICE_KRYLOV: Picard iterate / total =     14 /   1314, Nb. of FGMRES iterations =      1
(PID.TID 0000.0001)  S/R SEAICE_KRYLOV: Picard iterate / total, KRYLOVgamma_lin, initial norm =      15   1315 0.12500E-01 0.70394E-08
(PID.TID 0000.0001)  S/R SEAICE_KRYLOV: Picard iterate / total =     15 /   1315, Nb. of FGMRES iterations =      1
(PID.TID 0000.0001)  S/R SEAICE_KRYLOV: Picard iterate / total, KRYLOVgamma_lin, initial norm =      16   1316 0.12500E-01 0.35197E-08
(PID.TID 0000.0001)  S/R SEAICE_KRYLOV: Picard iterate / total =     16 /   1316, Nb. of FGMRES iterations =      1
(PID.TID 0000.0001)  S/R SEAICE_KRYLOV: Picard iterate / total, KRYLOVgamma_lin, initial norm =      17   1317 0.12500E-01 0.17599E-08
(PID.TID 0000.0001)  S/R SEAICE_KRYLOV: Picard iterate / total =     17 /   1317, Nb. of FGMRES iterations =      1
(PID.TID 0000.0001)  S/R SEAICE_KRYLOV: Picard iterate / total, KRYLOVgamma_lin, initial norm =      18   1318 0.12500E-01 0.87993E-09
(PID.TID 0000.0001)  S/R SEAICE_KRYLOV: Picard iterate / total =     18 /   1318, Nb. of FGMRES iterations =      1
(PID.TID 0000.0001)  S/R SEAICE_KRYLOV: Picard iterate / total, KRYLOVgamma_lin, initial norm =      19   1319 0.12500E-01 0.43997E-09
(PID.TID 0000.0001)  S/R SEAICE_KRYLOV: Picard iterate / total =     19 /   1319, Nb. of FGMRES iterations =      1
(PID.TID 0000.0001)  S/R SEAICE_KRYLOV: Picard iterate / total, KRYLOVgamma_lin, initial norm =      20   1320 0.12500E-01 0.21998E-09
(PID.TID 0000.0001)  S/R SEAICE_KRYLOV: Picard iterate / total =     20 /   1320, Nb. of FGMRES iterations =      1
(PID.TID 0000.0001)  S/R SEAICE_KRYLOV: Picard iterate / total, KRYLOVgamma_lin, initial norm =      21   1321 0.12500E-01 0.10999E-09
(PID.TID 0000.0001)  S/R SEAICE_KRYLOV: Picard iterate / total =     21 /   1321, Nb. of FGMRES iterations =      1
(PID.TID 0000.0001)  S/R SEAICE_KRYLOV: Picard iterate / total, KRYLOVgamma_lin, initial norm =      22   1322 0.12500E-01 0.54996E-10
(PID.TID 0000.0001)  S/R SEAICE_KRYLOV: Picard iterate / total =     22 /   1322, Nb. of FGMRES iterations =      1
(PID.TID 0000.0001)  S/R SEAICE_KRYLOV: Picard iterate / total, KRYLOVgamma_lin, initial norm =      23   1323 0.12500E-01 0.27498E-10
(PID.TID 0000.0001)  S/R SEAICE_KRYLOV: Picard iterate / total =     23 /   1323, Nb. of FGMRES iterations =      1
(PID.TID 0000.0001)  S/R SEAICE_KRYLOV: Picard iterate / total, KRYLOVgamma_lin, initial norm =      24   1324 0.12500E-01 0.13749E-10
(PID.TID 0000.0001)  S/R SEAICE_KRYLOV: Picard iterate / total =     24 /   1324, Nb. of FGMRES iterations =      1
(PID.TID 0000.0001)  S/R SEAICE_KRYLOV: Picard iterate / total, KRYLOVgamma_lin, initial norm =      25   1325 0.12500E-01 0.68745E-11
(PID.TID 0000.0001)  S/R SEAICE_KRYLOV: Picard iterate / total =     25 /   1325, Nb. of FGMRES iterations =      1
(PID.TID 0000.0001)  S/R SEAICE_KRYLOV: Picard iterate / total, KRYLOVgamma_lin, initial norm =      26   1326 0.12500E-01 0.34372E-11
(PID.TID 0000.0001)  S/R SEAICE_KRYLOV: Picard iterate / total =     26 /   1326, Nb. of FGMRES iterations =      1
(PID.TID 0000.0001)  S/R SEAICE_KRYLOV: Picard iterate / total, KRYLOVgamma_lin, initial norm =      27   1327 0.12500E-01 0.17186E-11
(PID.TID 0000.0001)  S/R SEAICE_KRYLOV: Picard iterate / total =     27 /   1327, Nb. of FGMRES iterations =      1
(PID.TID 0000.0001)  S/R SEAICE_KRYLOV: Picard iterate / total, KRYLOVgamma_lin, initial norm =      28   1328 0.12500E-01 0.85931E-12
(PID.TID 0000.0001)  S/R SEAICE_KRYLOV: Picard iterate / total =     28 /   1328, Nb. of FGMRES iterations =      1
(PID.TID 0000.0001)  S/R SEAICE_KRYLOV: Picard iterate / total, KRYLOVgamma_lin, initial norm =      29   1329 0.12500E-01 0.42965E-12
(PID.TID 0000.0001)  S/R SEAICE_KRYLOV: Picard iterate / total =     29 /   1329, Nb. of FGMRES iterations =      1
(PID.TID 0000.0001)  S/R SEAICE_KRYLOV: Picard iterate / total, KRYLOVgamma_lin, initial norm =      30   1330 0.12500E-01 0.21483E-12
(PID.TID 0000.0001)  S/R SEAICE_KRYLOV: Picard iterate / total =     30 /   1330, Nb. of FGMRES iterations =      1
(PID.TID 0000.0001)  S/R SEAICE_KRYLOV: Picard iterate / total, KRYLOVgamma_lin, final   norm =      31   1331 0.12500E-01 0.10741E-12
(PID.TID 0000.0001)  // =======================================================
(PID.TID 0000.0001)  // Begin KRYLOV statistics
(PID.TID 0000.0001)  // =======================================================
(PID.TID 0000.0001)  %KRYLOV_MON: time step              =         14
(PID.TID 0000.0001)  %KRYLOV_MON: Nb. of time steps      =          1
(PID.TID 0000.0001)  %KRYLOV_MON: Nb. of Picard steps    =         31
(PID.TID 0000.0001)  %KRYLOV_MON: Nb. of Krylov steps    =         30
(PID.TID 0000.0001)  %KRYLOV_MON: Nb. of Picard failures =          0
(PID.TID 0000.0001)  %KRYLOV_MON: Nb. of Krylov failures =          0
(PID.TID 0000.0001)  // =======================================================
(PID.TID 0000.0001)  // End KRYLOV statistics
(PID.TID 0000.0001)  // =======================================================
(PID.TID 0000.0001)  S/R SEAICE_KRYLOV: Total number FGMRES iterations =     30 in timestep         14
(PID.TID 0000.0001) // =======================================================
(PID.TID 0000.0001) // Begin MONITOR dynamic field statistics
(PID.TID 0000.0001) // =======================================================
(PID.TID 0000.0001) %MON time_tsnumber                =                    14
(PID.TID 0000.0001) %MON time_secondsf                =   3.5000000000000E+01
(PID.TID 0000.0001) %MON dynstat_eta_max              =   0.0000000000000E+00
(PID.TID 0000.0001) %MON dynstat_eta_min              =   0.0000000000000E+00
(PID.TID 0000.0001) %MON dynstat_eta_mean             =   0.0000000000000E+00
(PID.TID 0000.0001) %MON dynstat_eta_sd               =   0.0000000000000E+00
(PID.TID 0000.0001) %MON dynstat_eta_del2             =   0.0000000000000E+00
(PID.TID 0000.0001) %MON dynstat_uvel_max             =   9.8437500000000E-03
(PID.TID 0000.0001) %MON dynstat_uvel_min             =  -9.8437500000000E-03
(PID.TID 0000.0001) %MON dynstat_uvel_mean            =   0.0000000000000E+00
(PID.TID 0000.0001) %MON dynstat_uvel_sd              =   5.7727978755972E-03
(PID.TID 0000.0001) %MON dynstat_uvel_del2            =   1.0089048364799E-20
(PID.TID 0000.0001) %MON dynstat_vvel_max             =   9.8437500000000E-03
(PID.TID 0000.0001) %MON dynstat_vvel_min             =  -9.8437500000000E-03
(PID.TID 0000.0001) %MON dynstat_vvel_mean            =   0.0000000000000E+00
(PID.TID 0000.0001) %MON dynstat_vvel_sd              =   5.7727978755972E-03
(PID.TID 0000.0001) %MON dynstat_vvel_del2            =   1.0089048364799E-20
(PID.TID 0000.0001) %MON dynstat_wvel_max             =   1.1914062500000E-05
(PID.TID 0000.0001) %MON dynstat_wvel_min             =  -1.1914062500000E-05
(PID.TID 0000.0001) %MON dynstat_wvel_mean            =   3.4694469519536E-25
(PID.TID 0000.0001) %MON dynstat_wvel_sd              =   1.7200872247780E-06
(PID.TID 0000.0001) %MON dynstat_wvel_del2            =   2.8187489626940E-08
(PID.TID 0000.0001) %MON dynstat_theta_max            =  -1.6200000000000E+00
(PID.TID 0000.0001) %MON dynstat_theta_min            =  -1.6200000000000E+00
(PID.TID 0000.0001) %MON dynstat_theta_mean           =  -1.6200000000000E+00
(PID.TID 0000.0001) %MON dynstat_theta_sd             =   0.0000000000000E+00
(PID.TID 0000.0001) %MON dynstat_theta_del2           =   0.0000000000000E+00
(PID.TID 0000.0001) %MON dynstat_salt_max             =   3.0000000000000E+01
(PID.TID 0000.0001) %MON dynstat_salt_min             =   3.0000000000000E+01
(PID.TID 0000.0001) %MON dynstat_salt_mean            =   3.0000000000000E+01
(PID.TID 0000.0001) %MON dynstat_salt_sd              =   0.0000000000000E+00
(PID.TID 0000.0001) %MON dynstat_salt_del2            =   0.0000000000000E+00
(PID.TID 0000.0001) %MON trAdv_CFL_u_max              =   3.0761718750000E-06
(PID.TID 0000.0001) %MON trAdv_CFL_v_max              =   3.0761718750000E-06
(PID.TID 0000.0001) %MON trAdv_CFL_w_max              =   2.9785156250000E-06
(PID.TID 0000.0001) %MON advcfl_uvel_max              =   3.0761718750000E-06
(PID.TID 0000.0001) %MON advcfl_vvel_max              =   3.0761718750000E-06
(PID.TID 0000.0001) %MON advcfl_wvel_max              =   5.9570312500000E-06
(PID.TID 0000.0001) %MON advcfl_W_hf_max              =   0.0000000000000E+00
(PID.TID 0000.0001) %MON pe_b_mean                    =   0.0000000000000E+00
(PID.TID 0000.0001) %MON ke_max                       =   9.0844726562500E-05
(PID.TID 0000.0001) %MON ke_mean                      =   3.2804489135742E-05
(PID.TID 0000.0001) %MON ke_vol                       =   2.6214400000000E+12
(PID.TID 0000.0001) %MON vort_r_min                   =  -7.8125000000000E-08
(PID.TID 0000.0001) %MON vort_r_max                   =   1.2304687500000E-06
(PID.TID 0000.0001) %MON vort_a_mean                  =   1.4856000000000E-04
(PID.TID 0000.0001) %MON vort_a_sd                    =   1.5312918562496E-06
(PID.TID 0000.0001) %MON vort_p_mean                  =   1.5552375000000E-04
(PID.TID 0000.0001) %MON vort_p_sd                    =   5.5921473110222E-05
(PID.TID 0000.0001) %MON surfExpan_theta_mean         =   0.0000000000000E+00
(PID.TID 0000.0001) %MON surfExpan_salt_mean          =   1.3877787807814E-23
(PID.TID 0000.0001) // =======================================================
(PID.TID 0000.0001) // End MONITOR dynamic field statistics
(PID.TID 0000.0001) // =======================================================
(PID.TID 0000.0001) // =======================================================
(PID.TID 0000.0001) // Begin MONITOR SEAICE statistics
(PID.TID 0000.0001) // =======================================================
(PID.TID 0000.0001) %MON seaice_tsnumber              =                    14
(PID.TID 0000.0001) %MON seaice_time_sec              =   3.5000000000000E+01
(PID.TID 0000.0001) %MON seaice_uice_max              =   2.4006430068547E-02
(PID.TID 0000.0001) %MON seaice_uice_min              =  -2.4418385012993E-02
(PID.TID 0000.0001) %MON seaice_uice_mean             =  -6.0919743884534E-07
(PID.TID 0000.0001) %MON seaice_uice_sd               =   1.0314892080242E-02
(PID.TID 0000.0001) %MON seaice_uice_del2             =   3.0994822234433E-06
(PID.TID 0000.0001) %MON seaice_vice_max              =   2.3410847007335E-02
(PID.TID 0000.0001) %MON seaice_vice_min              =  -2.3697911451266E-02
(PID.TID 0000.0001) %MON seaice_vice_mean             =   2.7461194199132E-06
(PID.TID 0000.0001) %MON seaice_vice_sd               =   1.0266492004302E-02
(PID.TID 0000.0001) %MON seaice_vice_del2             =   3.1081569939837E-06
(PID.TID 0000.0001) %MON seaice_area_max              =   1.0000000000000E+00
(PID.TID 0000.0001) %MON seaice_area_min              =   9.9999269708870E-01
(PID.TID 0000.0001) %MON seaice_area_mean             =   9.9999956664381E-01
(PID.TID 0000.0001) %MON seaice_area_sd               =   9.8061995344904E-07
(PID.TID 0000.0001) %MON seaice_area_del2             =   1.1795225128590E-08
(PID.TID 0000.0001) %MON seaice_heff_max              =   3.0999855761601E-01
(PID.TID 0000.0001) %MON seaice_heff_min              =   2.9006044710827E-01
(PID.TID 0000.0001) %MON seaice_heff_mean             =   3.0067126525963E-01
(PID.TID 0000.0001) %MON seaice_heff_sd               =   5.0069245154108E-03
(PID.TID 0000.0001) %MON seaice_heff_del2             =   1.2853742143752E-05
(PID.TID 0000.0001) %MON seaice_hsnow_max             =   0.0000000000000E+00
(PID.TID 0000.0001) %MON seaice_hsnow_min             =   0.0000000000000E+00
(PID.TID 0000.0001) %MON seaice_hsnow_mean            =   0.0000000000000E+00
(PID.TID 0000.0001) %MON seaice_hsnow_sd              =   0.0000000000000E+00
(PID.TID 0000.0001) %MON seaice_hsnow_del2            =   0.0000000000000E+00
(PID.TID 0000.0001) // =======================================================
(PID.TID 0000.0001) // End MONITOR SEAICE statistics
(PID.TID 0000.0001) // =======================================================
 Computing Diagnostic #    163  SIuice       Counter:       1   Parms: UU      M1      
           Vector  Mate for  SIuice       Diagnostic #    164  SIvice   exists 
 Computing Diagnostic #    164  SIvice       Counter:       1   Parms: VV      M1      
           Vector  Mate for  SIvice       Diagnostic #    163  SIuice   exists 
 Computing Diagnostic #    149  SIheff       Counter:       1   Parms: SM      M1      
 Computing Diagnostic #    146  SIarea       Counter:       1   Parms: SM      M1      
 Computing Diagnostic #    228  SIshear      Counter:       1   Parms: SM      M1      
 Computing Diagnostic #    233  SIcohes      Counter:       1   Parms: SM      M1      
 Computing Diagnostic #    221  SIsig1       Counter:       1   Parms: SM      M1      
 Computing Diagnostic #    222  SIsig2       Counter:       1   Parms: SM      M1      
 Computing Diagnostic #    231  SIdamage     Counter:       1   Parms: SM      M1      
 Computing Diagnostic #    165  SItaux       Counter:       1   Parms: UU      U1      
           Vector  Mate for  SItaux       Diagnostic #    166  SItauy   exists 
 Computing Diagnostic #    166  SItauy       Counter:       1   Parms: VV      U1      
           Vector  Mate for  SItauy       Diagnostic #    165  SItaux   exists 
 Computing Diagnostic #    133  EXFuwind     Counter:       1   Parms: UM      U1      
 Computing Diagnostic #    134  EXFvwind     Counter:       1   Parms: VM      U1      
(PID.TID 0000.0001)  S/R SEAICE_KRYLOV: Picard iterate / total, KRYLOVgamma_lin, initial norm =       1   1401 0.10000E+00 0.10874E+00
(PID.TID 0000.0001)  S/R SEAICE_KRYLOV: Picard iterate / total =      1 /   1401, Nb. of FGMRES iterations =      1
(PID.TID 0000.0001)  S/R SEAICE_KRYLOV: Picard iterate / total, KRYLOVgamma_lin, initial norm =       2   1402 0.50000E-01 0.15788E-03
(PID.TID 0000.0001)  S/R SEAICE_KRYLOV: Picard iterate / total =      2 /   1402, Nb. of FGMRES iterations =      1
(PID.TID 0000.0001)  S/R SEAICE_KRYLOV: Picard iterate / total, KRYLOVgamma_lin, initial norm =       3   1403 0.50000E-01 0.25471E-04
(PID.TID 0000.0001)  S/R SEAICE_KRYLOV: Picard iterate / total =      3 /   1403, Nb. of FGMRES iterations =      1
(PID.TID 0000.0001)  S/R SEAICE_KRYLOV: Picard iterate / total, KRYLOVgamma_lin, initial norm =       4   1404 0.33333E-01 0.14904E-04
(PID.TID 0000.0001)  S/R SEAICE_KRYLOV: Picard iterate / total =      4 /   1404, Nb. of FGMRES iterations =      1
(PID.TID 0000.0001)  S/R SEAICE_KRYLOV: Picard iterate / total, KRYLOVgamma_lin, initial norm =       5   1405 0.33333E-01 0.72405E-05
(PID.TID 0000.0001)  S/R SEAICE_KRYLOV: Picard iterate / total =      5 /   1405, Nb. of FGMRES iterations =      1
(PID.TID 0000.0001)  S/R SEAICE_KRYLOV: Picard iterate / total, KRYLOVgamma_lin, initial norm =       6   1406 0.33333E-01 0.36359E-05
(PID.TID 0000.0001)  S/R SEAICE_KRYLOV: Picard iterate / total =      6 /   1406, Nb. of FGMRES iterations =      1
(PID.TID 0000.0001)  S/R SEAICE_KRYLOV: Picard iterate / total, KRYLOVgamma_lin, initial norm =       7   1407 0.33333E-01 0.18167E-05
(PID.TID 0000.0001)  S/R SEAICE_KRYLOV: Picard iterate / total =      7 /   1407, Nb. of FGMRES iterations =      1
(PID.TID 0000.0001)  S/R SEAICE_KRYLOV: Picard iterate / total, KRYLOVgamma_lin, initial norm =       8   1408 0.25000E-01 0.90846E-06
(PID.TID 0000.0001)  S/R SEAICE_KRYLOV: Picard iterate / total =      8 /   1408, Nb. of FGMRES iterations =      1
(PID.TID 0000.0001)  S/R SEAICE_KRYLOV: Picard iterate / total, KRYLOVgamma_lin, initial norm =       9   1409 0.20000E-01 0.45422E-06
(PID.TID 0000.0001)  S/R SEAICE_KRYLOV: Picard iterate / total =      9 /   1409, Nb. of FGMRES iterations =      1
(PID.TID 0000.0001)  S/R SEAICE_KRYLOV: Picard iterate / total, KRYLOVgamma_lin, initial norm =      10   1410 0.12500E-01 0.22711E-06
(PID.TID 0000.0001)  S/R SEAICE_KRYLOV: Picard iterate / total =     10 /   1410, Nb. of FGMRES iterations =      1
(PID.TID 0000.0001)  S/R SEAICE_KRYLOV: Picard iterate / total, KRYLOVgamma_lin, initial norm =      11   1411 0.12500E-01 0.11356E-06
(PID.TID 0000.0001)  S/R SEAICE_KRYLOV: Picard iterate / total =     11 /   1411, Nb. of FGMRES iterations =      1
(PID.TID 0000.0001)  S/R SEAICE_KRYLOV: Picard iterate / total, KRYLOVgamma_lin, initial norm =      12   1412 0.12500E-01 0.56778E-07
(PID.TID 0000.0001)  S/R SEAICE_KRYLOV: Picard iterate / total =     12 /   1412, Nb. of FGMRES iterations =      1
(PID.TID 0000.0001)  S/R SEAICE_KRYLOV: Picard iterate / total, KRYLOVgamma_lin, initial norm =      13   1413 0.12500E-01 0.28389E-07
(PID.TID 0000.0001)  S/R SEAICE_KRYLOV: Picard iterate / total =     13 /   1413, Nb. of FGMRES iterations =      1
(PID.TID 0000.0001)  S/R SEAICE_KRYLOV: Picard iterate / total, KRYLOVgamma_lin, initial norm =      14   1414 0.12500E-01 0.14195E-07
(PID.TID 0000.0001)  S/R SEAICE_KRYLOV: Picard iterate / total =     14 /   1414, Nb. of FGMRES iterations =      1
(PID.TID 0000.0001)  S/R SEAICE_KRYLOV: Picard iterate / total, KRYLOVgamma_lin, initial norm =      15   1415 0.12500E-01 0.70973E-08
(PID.TID 0000.0001)  S/R SEAICE_KRYLOV: Picard iterate / total =     15 /   1415, Nb. of FGMRES iterations =      1
(PID.TID 0000.0001)  S/R SEAICE_KRYLOV: Picard iterate / total, KRYLOVgamma_lin, initial norm =      16   1416 0.12500E-01 0.35486E-08
(PID.TID 0000.0001)  S/R SEAICE_KRYLOV: Picard iterate / total =     16 /   1416, Nb. of FGMRES iterations =      1
(PID.TID 0000.0001)  S/R SEAICE_KRYLOV: Picard iterate / total, KRYLOVgamma_lin, initial norm =      17   1417 0.12500E-01 0.17743E-08
(PID.TID 0000.0001)  S/R SEAICE_KRYLOV: Picard iterate / total =     17 /   1417, Nb. of FGMRES iterations =      1
(PID.TID 0000.0001)  S/R SEAICE_KRYLOV: Picard iterate / total, KRYLOVgamma_lin, initial norm =      18   1418 0.12500E-01 0.88716E-09
(PID.TID 0000.0001)  S/R SEAICE_KRYLOV: Picard iterate / total =     18 /   1418, Nb. of FGMRES iterations =      1
(PID.TID 0000.0001)  S/R SEAICE_KRYLOV: Picard iterate / total, KRYLOVgamma_lin, initial norm =      19   1419 0.12500E-01 0.44358E-09
(PID.TID 0000.0001)  S/R SEAICE_KRYLOV: Picard iterate / total =     19 /   1419, Nb. of FGMRES iterations =      1
(PID.TID 0000.0001)  S/R SEAICE_KRYLOV: Picard iterate / total, KRYLOVgamma_lin, initial norm =      20   1420 0.12500E-01 0.22179E-09
(PID.TID 0000.0001)  S/R SEAICE_KRYLOV: Picard iterate / total =     20 /   1420, Nb. of FGMRES iterations =      1
(PID.TID 0000.0001)  S/R SEAICE_KRYLOV: Picard iterate / total, KRYLOVgamma_lin, initial norm =      21   1421 0.12500E-01 0.11089E-09
(PID.TID 0000.0001)  S/R SEAICE_KRYLOV: Picard iterate / total =     21 /   1421, Nb. of FGMRES iterations =      1
(PID.TID 0000.0001)  S/R SEAICE_KRYLOV: Picard iterate / total, KRYLOVgamma_lin, initial norm =      22   1422 0.12500E-01 0.55447E-10
(PID.TID 0000.0001)  S/R SEAICE_KRYLOV: Picard iterate / total =     22 /   1422, Nb. of FGMRES iterations =      1
(PID.TID 0000.0001)  S/R SEAICE_KRYLOV: Picard iterate / total, KRYLOVgamma_lin, initial norm =      23   1423 0.12500E-01 0.27724E-10
(PID.TID 0000.0001)  S/R SEAICE_KRYLOV: Picard iterate / total =     23 /   1423, Nb. of FGMRES iterations =      1
(PID.TID 0000.0001)  S/R SEAICE_KRYLOV: Picard iterate / total, KRYLOVgamma_lin, initial norm =      24   1424 0.12500E-01 0.13862E-10
(PID.TID 0000.0001)  S/R SEAICE_KRYLOV: Picard iterate / total =     24 /   1424, Nb. of FGMRES iterations =      1
(PID.TID 0000.0001)  S/R SEAICE_KRYLOV: Picard iterate / total, KRYLOVgamma_lin, initial norm =      25   1425 0.12500E-01 0.69309E-11
(PID.TID 0000.0001)  S/R SEAICE_KRYLOV: Picard iterate / total =     25 /   1425, Nb. of FGMRES iterations =      1
(PID.TID 0000.0001)  S/R SEAICE_KRYLOV: Picard iterate / total, KRYLOVgamma_lin, initial norm =      26   1426 0.12500E-01 0.34655E-11
(PID.TID 0000.0001)  S/R SEAICE_KRYLOV: Picard iterate / total =     26 /   1426, Nb. of FGMRES iterations =      1
(PID.TID 0000.0001)  S/R SEAICE_KRYLOV: Picard iterate / total, KRYLOVgamma_lin, initial norm =      27   1427 0.12500E-01 0.17327E-11
(PID.TID 0000.0001)  S/R SEAICE_KRYLOV: Picard iterate / total =     27 /   1427, Nb. of FGMRES iterations =      1
(PID.TID 0000.0001)  S/R SEAICE_KRYLOV: Picard iterate / total, KRYLOVgamma_lin, initial norm =      28   1428 0.12500E-01 0.86637E-12
(PID.TID 0000.0001)  S/R SEAICE_KRYLOV: Picard iterate / total =     28 /   1428, Nb. of FGMRES iterations =      1
(PID.TID 0000.0001)  S/R SEAICE_KRYLOV: Picard iterate / total, KRYLOVgamma_lin, initial norm =      29   1429 0.12500E-01 0.43318E-12
(PID.TID 0000.0001)  S/R SEAICE_KRYLOV: Picard iterate / total =     29 /   1429, Nb. of FGMRES iterations =      1
(PID.TID 0000.0001)  S/R SEAICE_KRYLOV: Picard iterate / total, KRYLOVgamma_lin, initial norm =      30   1430 0.12500E-01 0.21659E-12
(PID.TID 0000.0001)  S/R SEAICE_KRYLOV: Picard iterate / total =     30 /   1430, Nb. of FGMRES iterations =      1
(PID.TID 0000.0001)  S/R SEAICE_KRYLOV: Picard iterate / total, KRYLOVgamma_lin, final   norm =      31   1431 0.12500E-01 0.10829E-12
(PID.TID 0000.0001)  // =======================================================
(PID.TID 0000.0001)  // Begin KRYLOV statistics
(PID.TID 0000.0001)  // =======================================================
(PID.TID 0000.0001)  %KRYLOV_MON: time step              =         15
(PID.TID 0000.0001)  %KRYLOV_MON: Nb. of time steps      =          1
(PID.TID 0000.0001)  %KRYLOV_MON: Nb. of Picard steps    =         31
(PID.TID 0000.0001)  %KRYLOV_MON: Nb. of Krylov steps    =         30
(PID.TID 0000.0001)  %KRYLOV_MON: Nb. of Picard failures =          0
(PID.TID 0000.0001)  %KRYLOV_MON: Nb. of Krylov failures =          0
(PID.TID 0000.0001)  // =======================================================
(PID.TID 0000.0001)  // End KRYLOV statistics
(PID.TID 0000.0001)  // =======================================================
(PID.TID 0000.0001)  S/R SEAICE_KRYLOV: Total number FGMRES iterations =     30 in timestep         15
(PID.TID 0000.0001) // =======================================================
(PID.TID 0000.0001) // Begin MONITOR dynamic field statistics
(PID.TID 0000.0001) // =======================================================
(PID.TID 0000.0001) %MON time_tsnumber                =                    15
(PID.TID 0000.0001) %MON time_secondsf                =   3.7500000000000E+01
(PID.TID 0000.0001) %MON dynstat_eta_max              =   0.0000000000000E+00
(PID.TID 0000.0001) %MON dynstat_eta_min              =   0.0000000000000E+00
(PID.TID 0000.0001) %MON dynstat_eta_mean             =   0.0000000000000E+00
(PID.TID 0000.0001) %MON dynstat_eta_sd               =   0.0000000000000E+00
(PID.TID 0000.0001) %MON dynstat_eta_del2             =   0.0000000000000E+00
(PID.TID 0000.0001) %MON dynstat_uvel_max             =   9.8437500000000E-03
(PID.TID 0000.0001) %MON dynstat_uvel_min             =  -9.8437500000000E-03
(PID.TID 0000.0001) %MON dynstat_uvel_mean            =   0.0000000000000E+00
(PID.TID 0000.0001) %MON dynstat_uvel_sd              =   5.7727978755972E-03
(PID.TID 0000.0001) %MON dynstat_uvel_del2            =   1.0089048364799E-20
(PID.TID 0000.0001) %MON dynstat_vvel_max             =   9.8437500000000E-03
(PID.TID 0000.0001) %MON dynstat_vvel_min             =  -9.8437500000000E-03
(PID.TID 0000.0001) %MON dynstat_vvel_mean            =   0.0000000000000E+00
(PID.TID 0000.0001) %MON dynstat_vvel_sd              =   5.7727978755972E-03
(PID.TID 0000.0001) %MON dynstat_vvel_del2            =   1.0089048364799E-20
(PID.TID 0000.0001) %MON dynstat_wvel_max             =   1.1914062500000E-05
(PID.TID 0000.0001) %MON dynstat_wvel_min             =  -1.1914062500000E-05
(PID.TID 0000.0001) %MON dynstat_wvel_mean            =   3.4694469519536E-25
(PID.TID 0000.0001) %MON dynstat_wvel_sd              =   1.7200872247780E-06
(PID.TID 0000.0001) %MON dynstat_wvel_del2            =   2.8187489626940E-08
(PID.TID 0000.0001) %MON dynstat_theta_max            =  -1.6200000000000E+00
(PID.TID 0000.0001) %MON dynstat_theta_min            =  -1.6200000000000E+00
(PID.TID 0000.0001) %MON dynstat_theta_mean           =  -1.6200000000000E+00
(PID.TID 0000.0001) %MON dynstat_theta_sd             =   0.0000000000000E+00
(PID.TID 0000.0001) %MON dynstat_theta_del2           =   0.0000000000000E+00
(PID.TID 0000.0001) %MON dynstat_salt_max             =   3.0000000000000E+01
(PID.TID 0000.0001) %MON dynstat_salt_min             =   3.0000000000000E+01
(PID.TID 0000.0001) %MON dynstat_salt_mean            =   3.0000000000000E+01
(PID.TID 0000.0001) %MON dynstat_salt_sd              =   0.0000000000000E+00
(PID.TID 0000.0001) %MON dynstat_salt_del2            =   0.0000000000000E+00
(PID.TID 0000.0001) %MON trAdv_CFL_u_max              =   3.0761718750000E-06
(PID.TID 0000.0001) %MON trAdv_CFL_v_max              =   3.0761718750000E-06
(PID.TID 0000.0001) %MON trAdv_CFL_w_max              =   2.9785156250000E-06
(PID.TID 0000.0001) %MON advcfl_uvel_max              =   3.0761718750000E-06
(PID.TID 0000.0001) %MON advcfl_vvel_max              =   3.0761718750000E-06
(PID.TID 0000.0001) %MON advcfl_wvel_max              =   5.9570312500000E-06
(PID.TID 0000.0001) %MON advcfl_W_hf_max              =   0.0000000000000E+00
(PID.TID 0000.0001) %MON pe_b_mean                    =   0.0000000000000E+00
(PID.TID 0000.0001) %MON ke_max                       =   9.0844726562500E-05
(PID.TID 0000.0001) %MON ke_mean                      =   3.2804489135742E-05
(PID.TID 0000.0001) %MON ke_vol                       =   2.6214400000000E+12
(PID.TID 0000.0001) %MON vort_r_min                   =  -7.8125000000000E-08
(PID.TID 0000.0001) %MON vort_r_max                   =   1.2304687500000E-06
(PID.TID 0000.0001) %MON vort_a_mean                  =   1.4856000000000E-04
(PID.TID 0000.0001) %MON vort_a_sd                    =   1.5312918562496E-06
(PID.TID 0000.0001) %MON vort_p_mean                  =   1.5552375000000E-04
(PID.TID 0000.0001) %MON vort_p_sd                    =   5.5921473110222E-05
(PID.TID 0000.0001) %MON surfExpan_theta_mean         =   0.0000000000000E+00
(PID.TID 0000.0001) %MON surfExpan_salt_mean          =   1.3877787807814E-23
(PID.TID 0000.0001) // =======================================================
(PID.TID 0000.0001) // End MONITOR dynamic field statistics
(PID.TID 0000.0001) // =======================================================
(PID.TID 0000.0001) // =======================================================
(PID.TID 0000.0001) // Begin MONITOR SEAICE statistics
(PID.TID 0000.0001) // =======================================================
(PID.TID 0000.0001) %MON seaice_tsnumber              =                    15
(PID.TID 0000.0001) %MON seaice_time_sec              =   3.7500000000000E+01
(PID.TID 0000.0001) %MON seaice_uice_max              =   2.5702239748511E-02
(PID.TID 0000.0001) %MON seaice_uice_min              =  -2.6127081169277E-02
(PID.TID 0000.0001) %MON seaice_uice_mean             =  -6.6494537606336E-07
(PID.TID 0000.0001) %MON seaice_uice_sd               =   1.1033610544295E-02
(PID.TID 0000.0001) %MON seaice_uice_del2             =   3.3075727183971E-06
(PID.TID 0000.0001) %MON seaice_vice_max              =   2.5058455254007E-02
(PID.TID 0000.0001) %MON seaice_vice_min              =  -2.5378892034197E-02
(PID.TID 0000.0001) %MON seaice_vice_mean             =   2.9454462543310E-06
(PID.TID 0000.0001) %MON seaice_vice_sd               =   1.0982081147159E-02
(PID.TID 0000.0001) %MON seaice_vice_del2             =   3.3155529613856E-06
(PID.TID 0000.0001) %MON seaice_area_max              =   1.0000000000000E+00
(PID.TID 0000.0001) %MON seaice_area_min              =   9.9999162821983E-01
(PID.TID 0000.0001) %MON seaice_area_mean             =   9.9999950573396E-01
(PID.TID 0000.0001) %MON seaice_area_sd               =   1.1237188014404E-06
(PID.TID 0000.0001) %MON seaice_area_del2             =   1.3612907739750E-08
(PID.TID 0000.0001) %MON seaice_heff_max              =   3.0999854124597E-01
(PID.TID 0000.0001) %MON seaice_heff_min              =   2.9006043030164E-01
(PID.TID 0000.0001) %MON seaice_heff_mean             =   3.0067126525963E-01
(PID.TID 0000.0001) %MON seaice_heff_sd               =   5.0069247145777E-03
(PID.TID 0000.0001) %MON seaice_heff_del2             =   1.2853741140859E-05
(PID.TID 0000.0001) %MON seaice_hsnow_max             =   0.0000000000000E+00
(PID.TID 0000.0001) %MON seaice_hsnow_min             =   0.0000000000000E+00
(PID.TID 0000.0001) %MON seaice_hsnow_mean            =   0.0000000000000E+00
(PID.TID 0000.0001) %MON seaice_hsnow_sd              =   0.0000000000000E+00
(PID.TID 0000.0001) %MON seaice_hsnow_del2            =   0.0000000000000E+00
(PID.TID 0000.0001) // =======================================================
(PID.TID 0000.0001) // End MONITOR SEAICE statistics
(PID.TID 0000.0001) // =======================================================
 Computing Diagnostic #    163  SIuice       Counter:       1   Parms: UU      M1      
           Vector  Mate for  SIuice       Diagnostic #    164  SIvice   exists 
 Computing Diagnostic #    164  SIvice       Counter:       1   Parms: VV      M1      
           Vector  Mate for  SIvice       Diagnostic #    163  SIuice   exists 
 Computing Diagnostic #    149  SIheff       Counter:       1   Parms: SM      M1      
 Computing Diagnostic #    146  SIarea       Counter:       1   Parms: SM      M1      
 Computing Diagnostic #    228  SIshear      Counter:       1   Parms: SM      M1      
 Computing Diagnostic #    233  SIcohes      Counter:       1   Parms: SM      M1      
 Computing Diagnostic #    221  SIsig1       Counter:       1   Parms: SM      M1      
 Computing Diagnostic #    222  SIsig2       Counter:       1   Parms: SM      M1      
 Computing Diagnostic #    231  SIdamage     Counter:       1   Parms: SM      M1      
 Computing Diagnostic #    165  SItaux       Counter:       1   Parms: UU      U1      
           Vector  Mate for  SItaux       Diagnostic #    166  SItauy   exists 
 Computing Diagnostic #    166  SItauy       Counter:       1   Parms: VV      U1      
           Vector  Mate for  SItauy       Diagnostic #    165  SItaux   exists 
 Computing Diagnostic #    133  EXFuwind     Counter:       1   Parms: UM      U1      
 Computing Diagnostic #    134  EXFvwind     Counter:       1   Parms: VM      U1      
(PID.TID 0000.0001)  S/R SEAICE_KRYLOV: Picard iterate / total, KRYLOVgamma_lin, initial norm =       1   1501 0.10000E+00 0.10844E+00
(PID.TID 0000.0001)  S/R SEAICE_KRYLOV: Picard iterate / total =      1 /   1501, Nb. of FGMRES iterations =      1
(PID.TID 0000.0001)  S/R SEAICE_KRYLOV: Picard iterate / total, KRYLOVgamma_lin, initial norm =       2   1502 0.50000E-01 0.15029E-03
(PID.TID 0000.0001)  S/R SEAICE_KRYLOV: Picard iterate / total =      2 /   1502, Nb. of FGMRES iterations =      1
(PID.TID 0000.0001)  S/R SEAICE_KRYLOV: Picard iterate / total, KRYLOVgamma_lin, initial norm =       3   1503 0.50000E-01 0.28572E-04
(PID.TID 0000.0001)  S/R SEAICE_KRYLOV: Picard iterate / total =      3 /   1503, Nb. of FGMRES iterations =      1
(PID.TID 0000.0001)  S/R SEAICE_KRYLOV: Picard iterate / total, KRYLOVgamma_lin, initial norm =       4   1504 0.33333E-01 0.15915E-04
(PID.TID 0000.0001)  S/R SEAICE_KRYLOV: Picard iterate / total =      4 /   1504, Nb. of FGMRES iterations =      1
(PID.TID 0000.0001)  S/R SEAICE_KRYLOV: Picard iterate / total, KRYLOVgamma_lin, initial norm =       5   1505 0.33333E-01 0.77990E-05
(PID.TID 0000.0001)  S/R SEAICE_KRYLOV: Picard iterate / total =      5 /   1505, Nb. of FGMRES iterations =      1
(PID.TID 0000.0001)  S/R SEAICE_KRYLOV: Picard iterate / total, KRYLOVgamma_lin, initial norm =       6   1506 0.33333E-01 0.39110E-05
(PID.TID 0000.0001)  S/R SEAICE_KRYLOV: Picard iterate / total =      6 /   1506, Nb. of FGMRES iterations =      1
(PID.TID 0000.0001)  S/R SEAICE_KRYLOV: Picard iterate / total, KRYLOVgamma_lin, initial norm =       7   1507 0.33333E-01 0.19546E-05
(PID.TID 0000.0001)  S/R SEAICE_KRYLOV: Picard iterate / total =      7 /   1507, Nb. of FGMRES iterations =      1
(PID.TID 0000.0001)  S/R SEAICE_KRYLOV: Picard iterate / total, KRYLOVgamma_lin, initial norm =       8   1508 0.25000E-01 0.97737E-06
(PID.TID 0000.0001)  S/R SEAICE_KRYLOV: Picard iterate / total =      8 /   1508, Nb. of FGMRES iterations =      1
(PID.TID 0000.0001)  S/R SEAICE_KRYLOV: Picard iterate / total, KRYLOVgamma_lin, initial norm =       9   1509 0.20000E-01 0.48868E-06
(PID.TID 0000.0001)  S/R SEAICE_KRYLOV: Picard iterate / total =      9 /   1509, Nb. of FGMRES iterations =      1
(PID.TID 0000.0001)  S/R SEAICE_KRYLOV: Picard iterate / total, KRYLOVgamma_lin, initial norm =      10   1510 0.12500E-01 0.24434E-06
(PID.TID 0000.0001)  S/R SEAICE_KRYLOV: Picard iterate / total =     10 /   1510, Nb. of FGMRES iterations =      1
(PID.TID 0000.0001)  S/R SEAICE_KRYLOV: Picard iterate / total, KRYLOVgamma_lin, initial norm =      11   1511 0.12500E-01 0.12217E-06
(PID.TID 0000.0001)  S/R SEAICE_KRYLOV: Picard iterate / total =     11 /   1511, Nb. of FGMRES iterations =      1
(PID.TID 0000.0001)  S/R SEAICE_KRYLOV: Picard iterate / total, KRYLOVgamma_lin, initial norm =      12   1512 0.12500E-01 0.61085E-07
(PID.TID 0000.0001)  S/R SEAICE_KRYLOV: Picard iterate / total =     12 /   1512, Nb. of FGMRES iterations =      1
(PID.TID 0000.0001)  S/R SEAICE_KRYLOV: Picard iterate / total, KRYLOVgamma_lin, initial norm =      13   1513 0.12500E-01 0.30543E-07
(PID.TID 0000.0001)  S/R SEAICE_KRYLOV: Picard iterate / total =     13 /   1513, Nb. of FGMRES iterations =      1
(PID.TID 0000.0001)  S/R SEAICE_KRYLOV: Picard iterate / total, KRYLOVgamma_lin, initial norm =      14   1514 0.12500E-01 0.15271E-07
(PID.TID 0000.0001)  S/R SEAICE_KRYLOV: Picard iterate / total =     14 /   1514, Nb. of FGMRES iterations =      1
(PID.TID 0000.0001)  S/R SEAICE_KRYLOV: Picard iterate / total, KRYLOVgamma_lin, initial norm =      15   1515 0.12500E-01 0.76356E-08
(PID.TID 0000.0001)  S/R SEAICE_KRYLOV: Picard iterate / total =     15 /   1515, Nb. of FGMRES iterations =      1
(PID.TID 0000.0001)  S/R SEAICE_KRYLOV: Picard iterate / total, KRYLOVgamma_lin, initial norm =      16   1516 0.12500E-01 0.38178E-08
(PID.TID 0000.0001)  S/R SEAICE_KRYLOV: Picard iterate / total =     16 /   1516, Nb. of FGMRES iterations =      1
(PID.TID 0000.0001)  S/R SEAICE_KRYLOV: Picard iterate / total, KRYLOVgamma_lin, initial norm =      17   1517 0.12500E-01 0.19089E-08
(PID.TID 0000.0001)  S/R SEAICE_KRYLOV: Picard iterate / total =     17 /   1517, Nb. of FGMRES iterations =      1
(PID.TID 0000.0001)  S/R SEAICE_KRYLOV: Picard iterate / total, KRYLOVgamma_lin, initial norm =      18   1518 0.12500E-01 0.95445E-09
(PID.TID 0000.0001)  S/R SEAICE_KRYLOV: Picard iterate / total =     18 /   1518, Nb. of FGMRES iterations =      1
(PID.TID 0000.0001)  S/R SEAICE_KRYLOV: Picard iterate / total, KRYLOVgamma_lin, initial norm =      19   1519 0.12500E-01 0.47723E-09
(PID.TID 0000.0001)  S/R SEAICE_KRYLOV: Picard iterate / total =     19 /   1519, Nb. of FGMRES iterations =      1
(PID.TID 0000.0001)  S/R SEAICE_KRYLOV: Picard iterate / total, KRYLOVgamma_lin, initial norm =      20   1520 0.12500E-01 0.23861E-09
(PID.TID 0000.0001)  S/R SEAICE_KRYLOV: Picard iterate / total =     20 /   1520, Nb. of FGMRES iterations =      1
(PID.TID 0000.0001)  S/R SEAICE_KRYLOV: Picard iterate / total, KRYLOVgamma_lin, initial norm =      21   1521 0.12500E-01 0.11931E-09
(PID.TID 0000.0001)  S/R SEAICE_KRYLOV: Picard iterate / total =     21 /   1521, Nb. of FGMRES iterations =      1
(PID.TID 0000.0001)  S/R SEAICE_KRYLOV: Picard iterate / total, KRYLOVgamma_lin, initial norm =      22   1522 0.12500E-01 0.59653E-10
(PID.TID 0000.0001)  S/R SEAICE_KRYLOV: Picard iterate / total =     22 /   1522, Nb. of FGMRES iterations =      1
(PID.TID 0000.0001)  S/R SEAICE_KRYLOV: Picard iterate / total, KRYLOVgamma_lin, initial norm =      23   1523 0.12500E-01 0.29827E-10
(PID.TID 0000.0001)  S/R SEAICE_KRYLOV: Picard iterate / total =     23 /   1523, Nb. of FGMRES iterations =      1
(PID.TID 0000.0001)  S/R SEAICE_KRYLOV: Picard iterate / total, KRYLOVgamma_lin, initial norm =      24   1524 0.12500E-01 0.14913E-10
(PID.TID 0000.0001)  S/R SEAICE_KRYLOV: Picard iterate / total =     24 /   1524, Nb. of FGMRES iterations =      1
(PID.TID 0000.0001)  S/R SEAICE_KRYLOV: Picard iterate / total, KRYLOVgamma_lin, initial norm =      25   1525 0.12500E-01 0.74567E-11
(PID.TID 0000.0001)  S/R SEAICE_KRYLOV: Picard iterate / total =     25 /   1525, Nb. of FGMRES iterations =      1
(PID.TID 0000.0001)  S/R SEAICE_KRYLOV: Picard iterate / total, KRYLOVgamma_lin, initial norm =      26   1526 0.12500E-01 0.37283E-11
(PID.TID 0000.0001)  S/R SEAICE_KRYLOV: Picard iterate / total =     26 /   1526, Nb. of FGMRES iterations =      1
(PID.TID 0000.0001)  S/R SEAICE_KRYLOV: Picard iterate / total, KRYLOVgamma_lin, initial norm =      27   1527 0.12500E-01 0.18642E-11
(PID.TID 0000.0001)  S/R SEAICE_KRYLOV: Picard iterate / total =     27 /   1527, Nb. of FGMRES iterations =      1
(PID.TID 0000.0001)  S/R SEAICE_KRYLOV: Picard iterate / total, KRYLOVgamma_lin, initial norm =      28   1528 0.12500E-01 0.93208E-12
(PID.TID 0000.0001)  S/R SEAICE_KRYLOV: Picard iterate / total =     28 /   1528, Nb. of FGMRES iterations =      1
(PID.TID 0000.0001)  S/R SEAICE_KRYLOV: Picard iterate / total, KRYLOVgamma_lin, initial norm =      29   1529 0.12500E-01 0.46604E-12
(PID.TID 0000.0001)  S/R SEAICE_KRYLOV: Picard iterate / total =     29 /   1529, Nb. of FGMRES iterations =      1
(PID.TID 0000.0001)  S/R SEAICE_KRYLOV: Picard iterate / total, KRYLOVgamma_lin, initial norm =      30   1530 0.12500E-01 0.23302E-12
(PID.TID 0000.0001)  S/R SEAICE_KRYLOV: Picard iterate / total =     30 /   1530, Nb. of FGMRES iterations =      1
(PID.TID 0000.0001)  S/R SEAICE_KRYLOV: Picard iterate / total, KRYLOVgamma_lin, initial norm =      31   1531 0.12500E-01 0.11651E-12
(PID.TID 0000.0001)  S/R SEAICE_KRYLOV: Picard iterate / total =     31 /   1531, Nb. of FGMRES iterations =      1
(PID.TID 0000.0001)  S/R SEAICE_KRYLOV: Picard iterate / total, KRYLOVgamma_lin, final   norm =      32   1532 0.12500E-01 0.58256E-13
(PID.TID 0000.0001)  // =======================================================
(PID.TID 0000.0001)  // Begin KRYLOV statistics
(PID.TID 0000.0001)  // =======================================================
(PID.TID 0000.0001)  %KRYLOV_MON: time step              =         16
(PID.TID 0000.0001)  %KRYLOV_MON: Nb. of time steps      =          1
(PID.TID 0000.0001)  %KRYLOV_MON: Nb. of Picard steps    =         32
(PID.TID 0000.0001)  %KRYLOV_MON: Nb. of Krylov steps    =         31
(PID.TID 0000.0001)  %KRYLOV_MON: Nb. of Picard failures =          0
(PID.TID 0000.0001)  %KRYLOV_MON: Nb. of Krylov failures =          0
(PID.TID 0000.0001)  // =======================================================
(PID.TID 0000.0001)  // End KRYLOV statistics
(PID.TID 0000.0001)  // =======================================================
(PID.TID 0000.0001)  S/R SEAICE_KRYLOV: Total number FGMRES iterations =     31 in timestep         16
(PID.TID 0000.0001) // =======================================================
(PID.TID 0000.0001) // Begin MONITOR dynamic field statistics
(PID.TID 0000.0001) // =======================================================
(PID.TID 0000.0001) %MON time_tsnumber                =                    16
(PID.TID 0000.0001) %MON time_secondsf                =   4.0000000000000E+01
(PID.TID 0000.0001) %MON dynstat_eta_max              =   0.0000000000000E+00
(PID.TID 0000.0001) %MON dynstat_eta_min              =   0.0000000000000E+00
(PID.TID 0000.0001) %MON dynstat_eta_mean             =   0.0000000000000E+00
(PID.TID 0000.0001) %MON dynstat_eta_sd               =   0.0000000000000E+00
(PID.TID 0000.0001) %MON dynstat_eta_del2             =   0.0000000000000E+00
(PID.TID 0000.0001) %MON dynstat_uvel_max             =   9.8437500000000E-03
(PID.TID 0000.0001) %MON dynstat_uvel_min             =  -9.8437500000000E-03
(PID.TID 0000.0001) %MON dynstat_uvel_mean            =   0.0000000000000E+00
(PID.TID 0000.0001) %MON dynstat_uvel_sd              =   5.7727978755972E-03
(PID.TID 0000.0001) %MON dynstat_uvel_del2            =   1.0089048364799E-20
(PID.TID 0000.0001) %MON dynstat_vvel_max             =   9.8437500000000E-03
(PID.TID 0000.0001) %MON dynstat_vvel_min             =  -9.8437500000000E-03
(PID.TID 0000.0001) %MON dynstat_vvel_mean            =   0.0000000000000E+00
(PID.TID 0000.0001) %MON dynstat_vvel_sd              =   5.7727978755972E-03
(PID.TID 0000.0001) %MON dynstat_vvel_del2            =   1.0089048364799E-20
(PID.TID 0000.0001) %MON dynstat_wvel_max             =   1.1914062500000E-05
(PID.TID 0000.0001) %MON dynstat_wvel_min             =  -1.1914062500000E-05
(PID.TID 0000.0001) %MON dynstat_wvel_mean            =   3.4694469519536E-25
(PID.TID 0000.0001) %MON dynstat_wvel_sd              =   1.7200872247780E-06
(PID.TID 0000.0001) %MON dynstat_wvel_del2            =   2.8187489626940E-08
(PID.TID 0000.0001) %MON dynstat_theta_max            =  -1.6200000000000E+00
(PID.TID 0000.0001) %MON dynstat_theta_min            =  -1.6200000000000E+00
(PID.TID 0000.0001) %MON dynstat_theta_mean           =  -1.6200000000000E+00
(PID.TID 0000.0001) %MON dynstat_theta_sd             =   0.0000000000000E+00
(PID.TID 0000.0001) %MON dynstat_theta_del2           =   0.0000000000000E+00
(PID.TID 0000.0001) %MON dynstat_salt_max             =   3.0000000000000E+01
(PID.TID 0000.0001) %MON dynstat_salt_min             =   3.0000000000000E+01
(PID.TID 0000.0001) %MON dynstat_salt_mean            =   3.0000000000000E+01
(PID.TID 0000.0001) %MON dynstat_salt_sd              =   0.0000000000000E+00
(PID.TID 0000.0001) %MON dynstat_salt_del2            =   0.0000000000000E+00
(PID.TID 0000.0001) %MON trAdv_CFL_u_max              =   3.0761718750000E-06
(PID.TID 0000.0001) %MON trAdv_CFL_v_max              =   3.0761718750000E-06
(PID.TID 0000.0001) %MON trAdv_CFL_w_max              =   2.9785156250000E-06
(PID.TID 0000.0001) %MON advcfl_uvel_max              =   3.0761718750000E-06
(PID.TID 0000.0001) %MON advcfl_vvel_max              =   3.0761718750000E-06
(PID.TID 0000.0001) %MON advcfl_wvel_max              =   5.9570312500000E-06
(PID.TID 0000.0001) %MON advcfl_W_hf_max              =   0.0000000000000E+00
(PID.TID 0000.0001) %MON pe_b_mean                    =   0.0000000000000E+00
(PID.TID 0000.0001) %MON ke_max                       =   9.0844726562500E-05
(PID.TID 0000.0001) %MON ke_mean                      =   3.2804489135742E-05
(PID.TID 0000.0001) %MON ke_vol                       =   2.6214400000000E+12
(PID.TID 0000.0001) %MON vort_r_min                   =  -7.8125000000000E-08
(PID.TID 0000.0001) %MON vort_r_max                   =   1.2304687500000E-06
(PID.TID 0000.0001) %MON vort_a_mean                  =   1.4856000000000E-04
(PID.TID 0000.0001) %MON vort_a_sd                    =   1.5312918562496E-06
(PID.TID 0000.0001) %MON vort_p_mean                  =   1.5552375000000E-04
(PID.TID 0000.0001) %MON vort_p_sd                    =   5.5921473110222E-05
(PID.TID 0000.0001) %MON surfExpan_theta_mean         =   0.0000000000000E+00
(PID.TID 0000.0001) %MON surfExpan_salt_mean          =   1.3877787807814E-23
(PID.TID 0000.0001) // =======================================================
(PID.TID 0000.0001) // End MONITOR dynamic field statistics
(PID.TID 0000.0001) // =======================================================
(PID.TID 0000.0001) // =======================================================
(PID.TID 0000.0001) // Begin MONITOR SEAICE statistics
(PID.TID 0000.0001) // =======================================================
(PID.TID 0000.0001) %MON seaice_tsnumber              =                    16
(PID.TID 0000.0001) %MON seaice_time_sec              =   4.0000000000000E+01
(PID.TID 0000.0001) %MON seaice_uice_max              =   2.7394933754114E-02
(PID.TID 0000.0001) %MON seaice_uice_min              =  -2.7833376298271E-02
(PID.TID 0000.0001) %MON seaice_uice_mean             =  -7.2164316458043E-07
(PID.TID 0000.0001) %MON seaice_uice_sd               =   1.1750285505401E-02
(PID.TID 0000.0001) %MON seaice_uice_del2             =   3.5161220511627E-06
(PID.TID 0000.0001) %MON seaice_vice_max              =   2.6703548171736E-02
(PID.TID 0000.0001) %MON seaice_vice_min              =  -2.7052068673671E-02
(PID.TID 0000.0001) %MON seaice_vice_mean             =   3.1414467382780E-06
(PID.TID 0000.0001) %MON seaice_vice_sd               =   1.1695652123400E-02
(PID.TID 0000.0001) %MON seaice_vice_del2             =   3.5246203645473E-06
(PID.TID 0000.0001) %MON seaice_area_max              =   1.0000000000000E+00
(PID.TID 0000.0001) %MON seaice_area_min              =   9.9999048473447E-01
(PID.TID 0000.0001) %MON seaice_area_mean             =   9.9999944090338E-01
(PID.TID 0000.0001) %MON seaice_area_sd               =   1.2768566574789E-06
(PID.TID 0000.0001) %MON seaice_area_del2             =   1.5561854866284E-08
(PID.TID 0000.0001) %MON seaice_heff_max              =   3.0999852378751E-01
(PID.TID 0000.0001) %MON seaice_heff_min              =   2.9006041239716E-01
(PID.TID 0000.0001) %MON seaice_heff_mean             =   3.0067126525963E-01
(PID.TID 0000.0001) %MON seaice_heff_sd               =   5.0069248961324E-03
(PID.TID 0000.0001) %MON seaice_heff_del2             =   1.2853740086391E-05
(PID.TID 0000.0001) %MON seaice_hsnow_max             =   0.0000000000000E+00
(PID.TID 0000.0001) %MON seaice_hsnow_min             =   0.0000000000000E+00
(PID.TID 0000.0001) %MON seaice_hsnow_mean            =   0.0000000000000E+00
(PID.TID 0000.0001) %MON seaice_hsnow_sd              =   0.0000000000000E+00
(PID.TID 0000.0001) %MON seaice_hsnow_del2            =   0.0000000000000E+00
(PID.TID 0000.0001) // =======================================================
(PID.TID 0000.0001) // End MONITOR SEAICE statistics
(PID.TID 0000.0001) // =======================================================
 Computing Diagnostic #    163  SIuice       Counter:       1   Parms: UU      M1      
           Vector  Mate for  SIuice       Diagnostic #    164  SIvice   exists 
 Computing Diagnostic #    164  SIvice       Counter:       1   Parms: VV      M1      
           Vector  Mate for  SIvice       Diagnostic #    163  SIuice   exists 
 Computing Diagnostic #    149  SIheff       Counter:       1   Parms: SM      M1      
 Computing Diagnostic #    146  SIarea       Counter:       1   Parms: SM      M1      
 Computing Diagnostic #    228  SIshear      Counter:       1   Parms: SM      M1      
 Computing Diagnostic #    233  SIcohes      Counter:       1   Parms: SM      M1      
 Computing Diagnostic #    221  SIsig1       Counter:       1   Parms: SM      M1      
 Computing Diagnostic #    222  SIsig2       Counter:       1   Parms: SM      M1      
 Computing Diagnostic #    231  SIdamage     Counter:       1   Parms: SM      M1      
 Computing Diagnostic #    165  SItaux       Counter:       1   Parms: UU      U1      
           Vector  Mate for  SItaux       Diagnostic #    166  SItauy   exists 
 Computing Diagnostic #    166  SItauy       Counter:       1   Parms: VV      U1      
           Vector  Mate for  SItauy       Diagnostic #    165  SItaux   exists 
 Computing Diagnostic #    133  EXFuwind     Counter:       1   Parms: UM      U1      
 Computing Diagnostic #    134  EXFvwind     Counter:       1   Parms: VM      U1      
(PID.TID 0000.0001)  S/R SEAICE_KRYLOV: Picard iterate / total, KRYLOVgamma_lin, initial norm =       1   1601 0.10000E+00 0.10814E+00
(PID.TID 0000.0001)  S/R SEAICE_KRYLOV: Picard iterate / total =      1 /   1601, Nb. of FGMRES iterations =      1
(PID.TID 0000.0001)  S/R SEAICE_KRYLOV: Picard iterate / total, KRYLOVgamma_lin, initial norm =       2   1602 0.50000E-01 0.14188E-03
(PID.TID 0000.0001)  S/R SEAICE_KRYLOV: Picard iterate / total =      2 /   1602, Nb. of FGMRES iterations =      1
(PID.TID 0000.0001)  S/R SEAICE_KRYLOV: Picard iterate / total, KRYLOVgamma_lin, initial norm =       3   1603 0.50000E-01 0.29726E-04
(PID.TID 0000.0001)  S/R SEAICE_KRYLOV: Picard iterate / total =      3 /   1603, Nb. of FGMRES iterations =      1
(PID.TID 0000.0001)  S/R SEAICE_KRYLOV: Picard iterate / total, KRYLOVgamma_lin, initial norm =       4   1604 0.33333E-01 0.16142E-04
(PID.TID 0000.0001)  S/R SEAICE_KRYLOV: Picard iterate / total =      4 /   1604, Nb. of FGMRES iterations =      1
(PID.TID 0000.0001)  S/R SEAICE_KRYLOV: Picard iterate / total, KRYLOVgamma_lin, initial norm =       5   1605 0.33333E-01 0.79466E-05
(PID.TID 0000.0001)  S/R SEAICE_KRYLOV: Picard iterate / total =      5 /   1605, Nb. of FGMRES iterations =      1
(PID.TID 0000.0001)  S/R SEAICE_KRYLOV: Picard iterate / total, KRYLOVgamma_lin, initial norm =       6   1606 0.33333E-01 0.39822E-05
(PID.TID 0000.0001)  S/R SEAICE_KRYLOV: Picard iterate / total =      6 /   1606, Nb. of FGMRES iterations =      1
(PID.TID 0000.0001)  S/R SEAICE_KRYLOV: Picard iterate / total, KRYLOVgamma_lin, initial norm =       7   1607 0.33333E-01 0.19904E-05
(PID.TID 0000.0001)  S/R SEAICE_KRYLOV: Picard iterate / total =      7 /   1607, Nb. of FGMRES iterations =      1
(PID.TID 0000.0001)  S/R SEAICE_KRYLOV: Picard iterate / total, KRYLOVgamma_lin, initial norm =       8   1608 0.25000E-01 0.99525E-06
(PID.TID 0000.0001)  S/R SEAICE_KRYLOV: Picard iterate / total =      8 /   1608, Nb. of FGMRES iterations =      1
(PID.TID 0000.0001)  S/R SEAICE_KRYLOV: Picard iterate / total, KRYLOVgamma_lin, initial norm =       9   1609 0.20000E-01 0.49762E-06
(PID.TID 0000.0001)  S/R SEAICE_KRYLOV: Picard iterate / total =      9 /   1609, Nb. of FGMRES iterations =      1
(PID.TID 0000.0001)  S/R SEAICE_KRYLOV: Picard iterate / total, KRYLOVgamma_lin, initial norm =      10   1610 0.12500E-01 0.24881E-06
(PID.TID 0000.0001)  S/R SEAICE_KRYLOV: Picard iterate / total =     10 /   1610, Nb. of FGMRES iterations =      1
(PID.TID 0000.0001)  S/R SEAICE_KRYLOV: Picard iterate / total, KRYLOVgamma_lin, initial norm =      11   1611 0.12500E-01 0.12441E-06
(PID.TID 0000.0001)  S/R SEAICE_KRYLOV: Picard iterate / total =     11 /   1611, Nb. of FGMRES iterations =      1
(PID.TID 0000.0001)  S/R SEAICE_KRYLOV: Picard iterate / total, KRYLOVgamma_lin, initial norm =      12   1612 0.12500E-01 0.62203E-07
(PID.TID 0000.0001)  S/R SEAICE_KRYLOV: Picard iterate / total =     12 /   1612, Nb. of FGMRES iterations =      1
(PID.TID 0000.0001)  S/R SEAICE_KRYLOV: Picard iterate / total, KRYLOVgamma_lin, initial norm =      13   1613 0.12500E-01 0.31101E-07
(PID.TID 0000.0001)  S/R SEAICE_KRYLOV: Picard iterate / total =     13 /   1613, Nb. of FGMRES iterations =      1
(PID.TID 0000.0001)  S/R SEAICE_KRYLOV: Picard iterate / total, KRYLOVgamma_lin, initial norm =      14   1614 0.12500E-01 0.15551E-07
(PID.TID 0000.0001)  S/R SEAICE_KRYLOV: Picard iterate / total =     14 /   1614, Nb. of FGMRES iterations =      1
(PID.TID 0000.0001)  S/R SEAICE_KRYLOV: Picard iterate / total, KRYLOVgamma_lin, initial norm =      15   1615 0.12500E-01 0.77754E-08
(PID.TID 0000.0001)  S/R SEAICE_KRYLOV: Picard iterate / total =     15 /   1615, Nb. of FGMRES iterations =      1
(PID.TID 0000.0001)  S/R SEAICE_KRYLOV: Picard iterate / total, KRYLOVgamma_lin, initial norm =      16   1616 0.12500E-01 0.38877E-08
(PID.TID 0000.0001)  S/R SEAICE_KRYLOV: Picard iterate / total =     16 /   1616, Nb. of FGMRES iterations =      1
(PID.TID 0000.0001)  S/R SEAICE_KRYLOV: Picard iterate / total, KRYLOVgamma_lin, initial norm =      17   1617 0.12500E-01 0.19438E-08
(PID.TID 0000.0001)  S/R SEAICE_KRYLOV: Picard iterate / total =     17 /   1617, Nb. of FGMRES iterations =      1
(PID.TID 0000.0001)  S/R SEAICE_KRYLOV: Picard iterate / total, KRYLOVgamma_lin, initial norm =      18   1618 0.12500E-01 0.97192E-09
(PID.TID 0000.0001)  S/R SEAICE_KRYLOV: Picard iterate / total =     18 /   1618, Nb. of FGMRES iterations =      1
(PID.TID 0000.0001)  S/R SEAICE_KRYLOV: Picard iterate / total, KRYLOVgamma_lin, initial norm =      19   1619 0.12500E-01 0.48596E-09
(PID.TID 0000.0001)  S/R SEAICE_KRYLOV: Picard iterate / total =     19 /   1619, Nb. of FGMRES iterations =      1
(PID.TID 0000.0001)  S/R SEAICE_KRYLOV: Picard iterate / total, KRYLOVgamma_lin, initial norm =      20   1620 0.12500E-01 0.24298E-09
(PID.TID 0000.0001)  S/R SEAICE_KRYLOV: Picard iterate / total =     20 /   1620, Nb. of FGMRES iterations =      1
(PID.TID 0000.0001)  S/R SEAICE_KRYLOV: Picard iterate / total, KRYLOVgamma_lin, initial norm =      21   1621 0.12500E-01 0.12149E-09
(PID.TID 0000.0001)  S/R SEAICE_KRYLOV: Picard iterate / total =     21 /   1621, Nb. of FGMRES iterations =      1
(PID.TID 0000.0001)  S/R SEAICE_KRYLOV: Picard iterate / total, KRYLOVgamma_lin, initial norm =      22   1622 0.12500E-01 0.60745E-10
(PID.TID 0000.0001)  S/R SEAICE_KRYLOV: Picard iterate / total =     22 /   1622, Nb. of FGMRES iterations =      1
(PID.TID 0000.0001)  S/R SEAICE_KRYLOV: Picard iterate / total, KRYLOVgamma_lin, initial norm =      23   1623 0.12500E-01 0.30373E-10
(PID.TID 0000.0001)  S/R SEAICE_KRYLOV: Picard iterate / total =     23 /   1623, Nb. of FGMRES iterations =      1
(PID.TID 0000.0001)  S/R SEAICE_KRYLOV: Picard iterate / total, KRYLOVgamma_lin, initial norm =      24   1624 0.12500E-01 0.15186E-10
(PID.TID 0000.0001)  S/R SEAICE_KRYLOV: Picard iterate / total =     24 /   1624, Nb. of FGMRES iterations =      1
(PID.TID 0000.0001)  S/R SEAICE_KRYLOV: Picard iterate / total, KRYLOVgamma_lin, initial norm =      25   1625 0.12500E-01 0.75931E-11
(PID.TID 0000.0001)  S/R SEAICE_KRYLOV: Picard iterate / total =     25 /   1625, Nb. of FGMRES iterations =      1
(PID.TID 0000.0001)  S/R SEAICE_KRYLOV: Picard iterate / total, KRYLOVgamma_lin, initial norm =      26   1626 0.12500E-01 0.37966E-11
(PID.TID 0000.0001)  S/R SEAICE_KRYLOV: Picard iterate / total =     26 /   1626, Nb. of FGMRES iterations =      1
(PID.TID 0000.0001)  S/R SEAICE_KRYLOV: Picard iterate / total, KRYLOVgamma_lin, initial norm =      27   1627 0.12500E-01 0.18983E-11
(PID.TID 0000.0001)  S/R SEAICE_KRYLOV: Picard iterate / total =     27 /   1627, Nb. of FGMRES iterations =      1
(PID.TID 0000.0001)  S/R SEAICE_KRYLOV: Picard iterate / total, KRYLOVgamma_lin, initial norm =      28   1628 0.12500E-01 0.94914E-12
(PID.TID 0000.0001)  S/R SEAICE_KRYLOV: Picard iterate / total =     28 /   1628, Nb. of FGMRES iterations =      1
(PID.TID 0000.0001)  S/R SEAICE_KRYLOV: Picard iterate / total, KRYLOVgamma_lin, initial norm =      29   1629 0.12500E-01 0.47457E-12
(PID.TID 0000.0001)  S/R SEAICE_KRYLOV: Picard iterate / total =     29 /   1629, Nb. of FGMRES iterations =      1
(PID.TID 0000.0001)  S/R SEAICE_KRYLOV: Picard iterate / total, KRYLOVgamma_lin, initial norm =      30   1630 0.12500E-01 0.23729E-12
(PID.TID 0000.0001)  S/R SEAICE_KRYLOV: Picard iterate / total =     30 /   1630, Nb. of FGMRES iterations =      1
(PID.TID 0000.0001)  S/R SEAICE_KRYLOV: Picard iterate / total, KRYLOVgamma_lin, initial norm =      31   1631 0.12500E-01 0.11864E-12
(PID.TID 0000.0001)  S/R SEAICE_KRYLOV: Picard iterate / total =     31 /   1631, Nb. of FGMRES iterations =      1
(PID.TID 0000.0001)  S/R SEAICE_KRYLOV: Picard iterate / total, KRYLOVgamma_lin, final   norm =      32   1632 0.12500E-01 0.59323E-13
(PID.TID 0000.0001)  // =======================================================
(PID.TID 0000.0001)  // Begin KRYLOV statistics
(PID.TID 0000.0001)  // =======================================================
(PID.TID 0000.0001)  %KRYLOV_MON: time step              =         17
(PID.TID 0000.0001)  %KRYLOV_MON: Nb. of time steps      =          1
(PID.TID 0000.0001)  %KRYLOV_MON: Nb. of Picard steps    =         32
(PID.TID 0000.0001)  %KRYLOV_MON: Nb. of Krylov steps    =         31
(PID.TID 0000.0001)  %KRYLOV_MON: Nb. of Picard failures =          0
(PID.TID 0000.0001)  %KRYLOV_MON: Nb. of Krylov failures =          0
(PID.TID 0000.0001)  // =======================================================
(PID.TID 0000.0001)  // End KRYLOV statistics
(PID.TID 0000.0001)  // =======================================================
(PID.TID 0000.0001)  S/R SEAICE_KRYLOV: Total number FGMRES iterations =     31 in timestep         17
(PID.TID 0000.0001) // =======================================================
(PID.TID 0000.0001) // Begin MONITOR dynamic field statistics
(PID.TID 0000.0001) // =======================================================
(PID.TID 0000.0001) %MON time_tsnumber                =                    17
(PID.TID 0000.0001) %MON time_secondsf                =   4.2500000000000E+01
(PID.TID 0000.0001) %MON dynstat_eta_max              =   0.0000000000000E+00
(PID.TID 0000.0001) %MON dynstat_eta_min              =   0.0000000000000E+00
(PID.TID 0000.0001) %MON dynstat_eta_mean             =   0.0000000000000E+00
(PID.TID 0000.0001) %MON dynstat_eta_sd               =   0.0000000000000E+00
(PID.TID 0000.0001) %MON dynstat_eta_del2             =   0.0000000000000E+00
(PID.TID 0000.0001) %MON dynstat_uvel_max             =   9.8437500000000E-03
(PID.TID 0000.0001) %MON dynstat_uvel_min             =  -9.8437500000000E-03
(PID.TID 0000.0001) %MON dynstat_uvel_mean            =   0.0000000000000E+00
(PID.TID 0000.0001) %MON dynstat_uvel_sd              =   5.7727978755972E-03
(PID.TID 0000.0001) %MON dynstat_uvel_del2            =   1.0089048364799E-20
(PID.TID 0000.0001) %MON dynstat_vvel_max             =   9.8437500000000E-03
(PID.TID 0000.0001) %MON dynstat_vvel_min             =  -9.8437500000000E-03
(PID.TID 0000.0001) %MON dynstat_vvel_mean            =   0.0000000000000E+00
(PID.TID 0000.0001) %MON dynstat_vvel_sd              =   5.7727978755972E-03
(PID.TID 0000.0001) %MON dynstat_vvel_del2            =   1.0089048364799E-20
(PID.TID 0000.0001) %MON dynstat_wvel_max             =   1.1914062500000E-05
(PID.TID 0000.0001) %MON dynstat_wvel_min             =  -1.1914062500000E-05
(PID.TID 0000.0001) %MON dynstat_wvel_mean            =   3.4694469519536E-25
(PID.TID 0000.0001) %MON dynstat_wvel_sd              =   1.7200872247780E-06
(PID.TID 0000.0001) %MON dynstat_wvel_del2            =   2.8187489626940E-08
(PID.TID 0000.0001) %MON dynstat_theta_max            =  -1.6200000000000E+00
(PID.TID 0000.0001) %MON dynstat_theta_min            =  -1.6200000000000E+00
(PID.TID 0000.0001) %MON dynstat_theta_mean           =  -1.6200000000000E+00
(PID.TID 0000.0001) %MON dynstat_theta_sd             =   0.0000000000000E+00
(PID.TID 0000.0001) %MON dynstat_theta_del2           =   0.0000000000000E+00
(PID.TID 0000.0001) %MON dynstat_salt_max             =   3.0000000000000E+01
(PID.TID 0000.0001) %MON dynstat_salt_min             =   3.0000000000000E+01
(PID.TID 0000.0001) %MON dynstat_salt_mean            =   3.0000000000000E+01
(PID.TID 0000.0001) %MON dynstat_salt_sd              =   0.0000000000000E+00
(PID.TID 0000.0001) %MON dynstat_salt_del2            =   0.0000000000000E+00
(PID.TID 0000.0001) %MON trAdv_CFL_u_max              =   3.0761718750000E-06
(PID.TID 0000.0001) %MON trAdv_CFL_v_max              =   3.0761718750000E-06
(PID.TID 0000.0001) %MON trAdv_CFL_w_max              =   2.9785156250000E-06
(PID.TID 0000.0001) %MON advcfl_uvel_max              =   3.0761718750000E-06
(PID.TID 0000.0001) %MON advcfl_vvel_max              =   3.0761718750000E-06
(PID.TID 0000.0001) %MON advcfl_wvel_max              =   5.9570312500000E-06
(PID.TID 0000.0001) %MON advcfl_W_hf_max              =   0.0000000000000E+00
(PID.TID 0000.0001) %MON pe_b_mean                    =   0.0000000000000E+00
(PID.TID 0000.0001) %MON ke_max                       =   9.0844726562500E-05
(PID.TID 0000.0001) %MON ke_mean                      =   3.2804489135742E-05
(PID.TID 0000.0001) %MON ke_vol                       =   2.6214400000000E+12
(PID.TID 0000.0001) %MON vort_r_min                   =  -7.8125000000000E-08
(PID.TID 0000.0001) %MON vort_r_max                   =   1.2304687500000E-06
(PID.TID 0000.0001) %MON vort_a_mean                  =   1.4856000000000E-04
(PID.TID 0000.0001) %MON vort_a_sd                    =   1.5312918562496E-06
(PID.TID 0000.0001) %MON vort_p_mean                  =   1.5552375000000E-04
(PID.TID 0000.0001) %MON vort_p_sd                    =   5.5921473110222E-05
(PID.TID 0000.0001) %MON surfExpan_theta_mean         =   0.0000000000000E+00
(PID.TID 0000.0001) %MON surfExpan_salt_mean          =   1.3877787807814E-23
(PID.TID 0000.0001) // =======================================================
(PID.TID 0000.0001) // End MONITOR dynamic field statistics
(PID.TID 0000.0001) // =======================================================
(PID.TID 0000.0001) // =======================================================
(PID.TID 0000.0001) // Begin MONITOR SEAICE statistics
(PID.TID 0000.0001) // =======================================================
(PID.TID 0000.0001) %MON seaice_tsnumber              =                    17
(PID.TID 0000.0001) %MON seaice_time_sec              =   4.2500000000000E+01
(PID.TID 0000.0001) %MON seaice_uice_max              =   2.9085407050661E-02
(PID.TID 0000.0001) %MON seaice_uice_min              =  -2.9537306240352E-02
(PID.TID 0000.0001) %MON seaice_uice_mean             =  -7.7940148662525E-07
(PID.TID 0000.0001) %MON seaice_uice_sd               =   1.2464918134730E-02
(PID.TID 0000.0001) %MON seaice_uice_del2             =   3.7266781523589E-06
(PID.TID 0000.0001) %MON seaice_vice_max              =   2.8346660470619E-02
(PID.TID 0000.0001) %MON seaice_vice_min              =  -2.8720567453637E-02
(PID.TID 0000.0001) %MON seaice_vice_mean             =   3.3339947437123E-06
(PID.TID 0000.0001) %MON seaice_vice_sd               =   1.2407208125375E-02
(PID.TID 0000.0001) %MON seaice_vice_del2             =   3.7347413680452E-06
(PID.TID 0000.0001) %MON seaice_area_max              =   1.0000000000000E+00
(PID.TID 0000.0001) %MON seaice_area_min              =   9.9998926656442E-01
(PID.TID 0000.0001) %MON seaice_area_mean             =   9.9999937216138E-01
(PID.TID 0000.0001) %MON seaice_area_sd               =   1.4400406603340E-06
(PID.TID 0000.0001) %MON seaice_area_del2             =   1.7644106760505E-08
(PID.TID 0000.0001) %MON seaice_heff_max              =   3.0999850524103E-01
(PID.TID 0000.0001) %MON seaice_heff_min              =   2.9006039339807E-01
(PID.TID 0000.0001) %MON seaice_heff_mean             =   3.0067126525963E-01
(PID.TID 0000.0001) %MON seaice_heff_sd               =   5.0069250516731E-03
(PID.TID 0000.0001) %MON seaice_heff_del2             =   1.2853738985789E-05
(PID.TID 0000.0001) %MON seaice_hsnow_max             =   0.0000000000000E+00
(PID.TID 0000.0001) %MON seaice_hsnow_min             =   0.0000000000000E+00
(PID.TID 0000.0001) %MON seaice_hsnow_mean            =   0.0000000000000E+00
(PID.TID 0000.0001) %MON seaice_hsnow_sd              =   0.0000000000000E+00
(PID.TID 0000.0001) %MON seaice_hsnow_del2            =   0.0000000000000E+00
(PID.TID 0000.0001) // =======================================================
(PID.TID 0000.0001) // End MONITOR SEAICE statistics
(PID.TID 0000.0001) // =======================================================
 Computing Diagnostic #    163  SIuice       Counter:       1   Parms: UU      M1      
           Vector  Mate for  SIuice       Diagnostic #    164  SIvice   exists 
 Computing Diagnostic #    164  SIvice       Counter:       1   Parms: VV      M1      
           Vector  Mate for  SIvice       Diagnostic #    163  SIuice   exists 
 Computing Diagnostic #    149  SIheff       Counter:       1   Parms: SM      M1      
 Computing Diagnostic #    146  SIarea       Counter:       1   Parms: SM      M1      
 Computing Diagnostic #    228  SIshear      Counter:       1   Parms: SM      M1      
 Computing Diagnostic #    233  SIcohes      Counter:       1   Parms: SM      M1      
 Computing Diagnostic #    221  SIsig1       Counter:       1   Parms: SM      M1      
 Computing Diagnostic #    222  SIsig2       Counter:       1   Parms: SM      M1      
 Computing Diagnostic #    231  SIdamage     Counter:       1   Parms: SM      M1      
 Computing Diagnostic #    165  SItaux       Counter:       1   Parms: UU      U1      
           Vector  Mate for  SItaux       Diagnostic #    166  SItauy   exists 
 Computing Diagnostic #    166  SItauy       Counter:       1   Parms: VV      U1      
           Vector  Mate for  SItauy       Diagnostic #    165  SItaux   exists 
 Computing Diagnostic #    133  EXFuwind     Counter:       1   Parms: UM      U1      
 Computing Diagnostic #    134  EXFvwind     Counter:       1   Parms: VM      U1      
(PID.TID 0000.0001)  S/R SEAICE_KRYLOV: Picard iterate / total, KRYLOVgamma_lin, initial norm =       1   1701 0.10000E+00 0.10784E+00
(PID.TID 0000.0001)  S/R SEAICE_KRYLOV: Picard iterate / total =      1 /   1701, Nb. of FGMRES iterations =      1
(PID.TID 0000.0001)  S/R SEAICE_KRYLOV: Picard iterate / total, KRYLOVgamma_lin, initial norm =       2   1702 0.50000E-01 0.13437E-03
(PID.TID 0000.0001)  S/R SEAICE_KRYLOV: Picard iterate / total =      2 /   1702, Nb. of FGMRES iterations =      1
(PID.TID 0000.0001)  S/R SEAICE_KRYLOV: Picard iterate / total, KRYLOVgamma_lin, initial norm =       3   1703 0.50000E-01 0.29676E-04
(PID.TID 0000.0001)  S/R SEAICE_KRYLOV: Picard iterate / total =      3 /   1703, Nb. of FGMRES iterations =      1
(PID.TID 0000.0001)  S/R SEAICE_KRYLOV: Picard iterate / total, KRYLOVgamma_lin, initial norm =       4   1704 0.33333E-01 0.15919E-04
(PID.TID 0000.0001)  S/R SEAICE_KRYLOV: Picard iterate / total =      4 /   1704, Nb. of FGMRES iterations =      1
(PID.TID 0000.0001)  S/R SEAICE_KRYLOV: Picard iterate / total, KRYLOVgamma_lin, initial norm =       5   1705 0.33333E-01 0.78573E-05
(PID.TID 0000.0001)  S/R SEAICE_KRYLOV: Picard iterate / total =      5 /   1705, Nb. of FGMRES iterations =      1
(PID.TID 0000.0001)  S/R SEAICE_KRYLOV: Picard iterate / total, KRYLOVgamma_lin, initial norm =       6   1706 0.33333E-01 0.39358E-05
(PID.TID 0000.0001)  S/R SEAICE_KRYLOV: Picard iterate / total =      6 /   1706, Nb. of FGMRES iterations =      1
(PID.TID 0000.0001)  S/R SEAICE_KRYLOV: Picard iterate / total, KRYLOVgamma_lin, initial norm =       7   1707 0.33333E-01 0.19674E-05
(PID.TID 0000.0001)  S/R SEAICE_KRYLOV: Picard iterate / total =      7 /   1707, Nb. of FGMRES iterations =      1
(PID.TID 0000.0001)  S/R SEAICE_KRYLOV: Picard iterate / total, KRYLOVgamma_lin, initial norm =       8   1708 0.25000E-01 0.98372E-06
(PID.TID 0000.0001)  S/R SEAICE_KRYLOV: Picard iterate / total =      8 /   1708, Nb. of FGMRES iterations =      1
(PID.TID 0000.0001)  S/R SEAICE_KRYLOV: Picard iterate / total, KRYLOVgamma_lin, initial norm =       9   1709 0.20000E-01 0.49186E-06
(PID.TID 0000.0001)  S/R SEAICE_KRYLOV: Picard iterate / total =      9 /   1709, Nb. of FGMRES iterations =      1
(PID.TID 0000.0001)  S/R SEAICE_KRYLOV: Picard iterate / total, KRYLOVgamma_lin, initial norm =      10   1710 0.12500E-01 0.24593E-06
(PID.TID 0000.0001)  S/R SEAICE_KRYLOV: Picard iterate / total =     10 /   1710, Nb. of FGMRES iterations =      1
(PID.TID 0000.0001)  S/R SEAICE_KRYLOV: Picard iterate / total, KRYLOVgamma_lin, initial norm =      11   1711 0.12500E-01 0.12296E-06
(PID.TID 0000.0001)  S/R SEAICE_KRYLOV: Picard iterate / total =     11 /   1711, Nb. of FGMRES iterations =      1
(PID.TID 0000.0001)  S/R SEAICE_KRYLOV: Picard iterate / total, KRYLOVgamma_lin, initial norm =      12   1712 0.12500E-01 0.61482E-07
(PID.TID 0000.0001)  S/R SEAICE_KRYLOV: Picard iterate / total =     12 /   1712, Nb. of FGMRES iterations =      1
(PID.TID 0000.0001)  S/R SEAICE_KRYLOV: Picard iterate / total, KRYLOVgamma_lin, initial norm =      13   1713 0.12500E-01 0.30741E-07
(PID.TID 0000.0001)  S/R SEAICE_KRYLOV: Picard iterate / total =     13 /   1713, Nb. of FGMRES iterations =      1
(PID.TID 0000.0001)  S/R SEAICE_KRYLOV: Picard iterate / total, KRYLOVgamma_lin, initial norm =      14   1714 0.12500E-01 0.15371E-07
(PID.TID 0000.0001)  S/R SEAICE_KRYLOV: Picard iterate / total =     14 /   1714, Nb. of FGMRES iterations =      1
(PID.TID 0000.0001)  S/R SEAICE_KRYLOV: Picard iterate / total, KRYLOVgamma_lin, initial norm =      15   1715 0.12500E-01 0.76853E-08
(PID.TID 0000.0001)  S/R SEAICE_KRYLOV: Picard iterate / total =     15 /   1715, Nb. of FGMRES iterations =      1
(PID.TID 0000.0001)  S/R SEAICE_KRYLOV: Picard iterate / total, KRYLOVgamma_lin, initial norm =      16   1716 0.12500E-01 0.38426E-08
(PID.TID 0000.0001)  S/R SEAICE_KRYLOV: Picard iterate / total =     16 /   1716, Nb. of FGMRES iterations =      1
(PID.TID 0000.0001)  S/R SEAICE_KRYLOV: Picard iterate / total, KRYLOVgamma_lin, initial norm =      17   1717 0.12500E-01 0.19213E-08
(PID.TID 0000.0001)  S/R SEAICE_KRYLOV: Picard iterate / total =     17 /   1717, Nb. of FGMRES iterations =      1
(PID.TID 0000.0001)  S/R SEAICE_KRYLOV: Picard iterate / total, KRYLOVgamma_lin, initial norm =      18   1718 0.12500E-01 0.96066E-09
(PID.TID 0000.0001)  S/R SEAICE_KRYLOV: Picard iterate / total =     18 /   1718, Nb. of FGMRES iterations =      1
(PID.TID 0000.0001)  S/R SEAICE_KRYLOV: Picard iterate / total, KRYLOVgamma_lin, initial norm =      19   1719 0.12500E-01 0.48033E-09
(PID.TID 0000.0001)  S/R SEAICE_KRYLOV: Picard iterate / total =     19 /   1719, Nb. of FGMRES iterations =      1
(PID.TID 0000.0001)  S/R SEAICE_KRYLOV: Picard iterate / total, KRYLOVgamma_lin, initial norm =      20   1720 0.12500E-01 0.24017E-09
(PID.TID 0000.0001)  S/R SEAICE_KRYLOV: Picard iterate / total =     20 /   1720, Nb. of FGMRES iterations =      1
(PID.TID 0000.0001)  S/R SEAICE_KRYLOV: Picard iterate / total, KRYLOVgamma_lin, initial norm =      21   1721 0.12500E-01 0.12008E-09
(PID.TID 0000.0001)  S/R SEAICE_KRYLOV: Picard iterate / total =     21 /   1721, Nb. of FGMRES iterations =      1
(PID.TID 0000.0001)  S/R SEAICE_KRYLOV: Picard iterate / total, KRYLOVgamma_lin, initial norm =      22   1722 0.12500E-01 0.60041E-10
(PID.TID 0000.0001)  S/R SEAICE_KRYLOV: Picard iterate / total =     22 /   1722, Nb. of FGMRES iterations =      1
(PID.TID 0000.0001)  S/R SEAICE_KRYLOV: Picard iterate / total, KRYLOVgamma_lin, initial norm =      23   1723 0.12500E-01 0.30021E-10
(PID.TID 0000.0001)  S/R SEAICE_KRYLOV: Picard iterate / total =     23 /   1723, Nb. of FGMRES iterations =      1
(PID.TID 0000.0001)  S/R SEAICE_KRYLOV: Picard iterate / total, KRYLOVgamma_lin, initial norm =      24   1724 0.12500E-01 0.15010E-10
(PID.TID 0000.0001)  S/R SEAICE_KRYLOV: Picard iterate / total =     24 /   1724, Nb. of FGMRES iterations =      1
(PID.TID 0000.0001)  S/R SEAICE_KRYLOV: Picard iterate / total, KRYLOVgamma_lin, initial norm =      25   1725 0.12500E-01 0.75052E-11
(PID.TID 0000.0001)  S/R SEAICE_KRYLOV: Picard iterate / total =     25 /   1725, Nb. of FGMRES iterations =      1
(PID.TID 0000.0001)  S/R SEAICE_KRYLOV: Picard iterate / total, KRYLOVgamma_lin, initial norm =      26   1726 0.12500E-01 0.37526E-11
(PID.TID 0000.0001)  S/R SEAICE_KRYLOV: Picard iterate / total =     26 /   1726, Nb. of FGMRES iterations =      1
(PID.TID 0000.0001)  S/R SEAICE_KRYLOV: Picard iterate / total, KRYLOVgamma_lin, initial norm =      27   1727 0.12500E-01 0.18763E-11
(PID.TID 0000.0001)  S/R SEAICE_KRYLOV: Picard iterate / total =     27 /   1727, Nb. of FGMRES iterations =      1
(PID.TID 0000.0001)  S/R SEAICE_KRYLOV: Picard iterate / total, KRYLOVgamma_lin, initial norm =      28   1728 0.12500E-01 0.93815E-12
(PID.TID 0000.0001)  S/R SEAICE_KRYLOV: Picard iterate / total =     28 /   1728, Nb. of FGMRES iterations =      1
(PID.TID 0000.0001)  S/R SEAICE_KRYLOV: Picard iterate / total, KRYLOVgamma_lin, initial norm =      29   1729 0.12500E-01 0.46907E-12
(PID.TID 0000.0001)  S/R SEAICE_KRYLOV: Picard iterate / total =     29 /   1729, Nb. of FGMRES iterations =      1
(PID.TID 0000.0001)  S/R SEAICE_KRYLOV: Picard iterate / total, KRYLOVgamma_lin, initial norm =      30   1730 0.12500E-01 0.23454E-12
(PID.TID 0000.0001)  S/R SEAICE_KRYLOV: Picard iterate / total =     30 /   1730, Nb. of FGMRES iterations =      1
(PID.TID 0000.0001)  S/R SEAICE_KRYLOV: Picard iterate / total, KRYLOVgamma_lin, initial norm =      31   1731 0.12500E-01 0.11727E-12
(PID.TID 0000.0001)  S/R SEAICE_KRYLOV: Picard iterate / total =     31 /   1731, Nb. of FGMRES iterations =      1
(PID.TID 0000.0001)  S/R SEAICE_KRYLOV: Picard iterate / total, KRYLOVgamma_lin, final   norm =      32   1732 0.12500E-01 0.58635E-13
(PID.TID 0000.0001)  // =======================================================
(PID.TID 0000.0001)  // Begin KRYLOV statistics
(PID.TID 0000.0001)  // =======================================================
(PID.TID 0000.0001)  %KRYLOV_MON: time step              =         18
(PID.TID 0000.0001)  %KRYLOV_MON: Nb. of time steps      =          1
(PID.TID 0000.0001)  %KRYLOV_MON: Nb. of Picard steps    =         32
(PID.TID 0000.0001)  %KRYLOV_MON: Nb. of Krylov steps    =         31
(PID.TID 0000.0001)  %KRYLOV_MON: Nb. of Picard failures =          0
(PID.TID 0000.0001)  %KRYLOV_MON: Nb. of Krylov failures =          0
(PID.TID 0000.0001)  // =======================================================
(PID.TID 0000.0001)  // End KRYLOV statistics
(PID.TID 0000.0001)  // =======================================================
(PID.TID 0000.0001)  S/R SEAICE_KRYLOV: Total number FGMRES iterations =     31 in timestep         18
(PID.TID 0000.0001) // =======================================================
(PID.TID 0000.0001) // Begin MONITOR dynamic field statistics
(PID.TID 0000.0001) // =======================================================
(PID.TID 0000.0001) %MON time_tsnumber                =                    18
(PID.TID 0000.0001) %MON time_secondsf                =   4.5000000000000E+01
(PID.TID 0000.0001) %MON dynstat_eta_max              =   0.0000000000000E+00
(PID.TID 0000.0001) %MON dynstat_eta_min              =   0.0000000000000E+00
(PID.TID 0000.0001) %MON dynstat_eta_mean             =   0.0000000000000E+00
(PID.TID 0000.0001) %MON dynstat_eta_sd               =   0.0000000000000E+00
(PID.TID 0000.0001) %MON dynstat_eta_del2             =   0.0000000000000E+00
(PID.TID 0000.0001) %MON dynstat_uvel_max             =   9.8437500000000E-03
(PID.TID 0000.0001) %MON dynstat_uvel_min             =  -9.8437500000000E-03
(PID.TID 0000.0001) %MON dynstat_uvel_mean            =   0.0000000000000E+00
(PID.TID 0000.0001) %MON dynstat_uvel_sd              =   5.7727978755972E-03
(PID.TID 0000.0001) %MON dynstat_uvel_del2            =   1.0089048364799E-20
(PID.TID 0000.0001) %MON dynstat_vvel_max             =   9.8437500000000E-03
(PID.TID 0000.0001) %MON dynstat_vvel_min             =  -9.8437500000000E-03
(PID.TID 0000.0001) %MON dynstat_vvel_mean            =   0.0000000000000E+00
(PID.TID 0000.0001) %MON dynstat_vvel_sd              =   5.7727978755972E-03
(PID.TID 0000.0001) %MON dynstat_vvel_del2            =   1.0089048364799E-20
(PID.TID 0000.0001) %MON dynstat_wvel_max             =   1.1914062500000E-05
(PID.TID 0000.0001) %MON dynstat_wvel_min             =  -1.1914062500000E-05
(PID.TID 0000.0001) %MON dynstat_wvel_mean            =   3.4694469519536E-25
(PID.TID 0000.0001) %MON dynstat_wvel_sd              =   1.7200872247780E-06
(PID.TID 0000.0001) %MON dynstat_wvel_del2            =   2.8187489626940E-08
(PID.TID 0000.0001) %MON dynstat_theta_max            =  -1.6200000000000E+00
(PID.TID 0000.0001) %MON dynstat_theta_min            =  -1.6200000000000E+00
(PID.TID 0000.0001) %MON dynstat_theta_mean           =  -1.6200000000000E+00
(PID.TID 0000.0001) %MON dynstat_theta_sd             =   0.0000000000000E+00
(PID.TID 0000.0001) %MON dynstat_theta_del2           =   0.0000000000000E+00
(PID.TID 0000.0001) %MON dynstat_salt_max             =   3.0000000000000E+01
(PID.TID 0000.0001) %MON dynstat_salt_min             =   3.0000000000000E+01
(PID.TID 0000.0001) %MON dynstat_salt_mean            =   3.0000000000000E+01
(PID.TID 0000.0001) %MON dynstat_salt_sd              =   0.0000000000000E+00
(PID.TID 0000.0001) %MON dynstat_salt_del2            =   0.0000000000000E+00
(PID.TID 0000.0001) %MON trAdv_CFL_u_max              =   3.0761718750000E-06
(PID.TID 0000.0001) %MON trAdv_CFL_v_max              =   3.0761718750000E-06
(PID.TID 0000.0001) %MON trAdv_CFL_w_max              =   2.9785156250000E-06
(PID.TID 0000.0001) %MON advcfl_uvel_max              =   3.0761718750000E-06
(PID.TID 0000.0001) %MON advcfl_vvel_max              =   3.0761718750000E-06
(PID.TID 0000.0001) %MON advcfl_wvel_max              =   5.9570312500000E-06
(PID.TID 0000.0001) %MON advcfl_W_hf_max              =   0.0000000000000E+00
(PID.TID 0000.0001) %MON pe_b_mean                    =   0.0000000000000E+00
(PID.TID 0000.0001) %MON ke_max                       =   9.0844726562500E-05
(PID.TID 0000.0001) %MON ke_mean                      =   3.2804489135742E-05
(PID.TID 0000.0001) %MON ke_vol                       =   2.6214400000000E+12
(PID.TID 0000.0001) %MON vort_r_min                   =  -7.8125000000000E-08
(PID.TID 0000.0001) %MON vort_r_max                   =   1.2304687500000E-06
(PID.TID 0000.0001) %MON vort_a_mean                  =   1.4856000000000E-04
(PID.TID 0000.0001) %MON vort_a_sd                    =   1.5312918562496E-06
(PID.TID 0000.0001) %MON vort_p_mean                  =   1.5552375000000E-04
(PID.TID 0000.0001) %MON vort_p_sd                    =   5.5921473110222E-05
(PID.TID 0000.0001) %MON surfExpan_theta_mean         =   0.0000000000000E+00
(PID.TID 0000.0001) %MON surfExpan_salt_mean          =   1.3877787807814E-23
(PID.TID 0000.0001) // =======================================================
(PID.TID 0000.0001) // End MONITOR dynamic field statistics
(PID.TID 0000.0001) // =======================================================
(PID.TID 0000.0001) // =======================================================
(PID.TID 0000.0001) // Begin MONITOR SEAICE statistics
(PID.TID 0000.0001) // =======================================================
(PID.TID 0000.0001) %MON seaice_tsnumber              =                    18
(PID.TID 0000.0001) %MON seaice_time_sec              =   4.5000000000000E+01
(PID.TID 0000.0001) %MON seaice_uice_max              =   3.0773691918261E-02
(PID.TID 0000.0001) %MON seaice_uice_min              =  -3.1238788439986E-02
(PID.TID 0000.0001) %MON seaice_uice_mean             =  -8.3839604140616E-07
(PID.TID 0000.0001) %MON seaice_uice_sd               =   1.3177510517274E-02
(PID.TID 0000.0001) %MON seaice_uice_del2             =   3.9393832254329E-06
(PID.TID 0000.0001) %MON seaice_vice_max              =   2.9987770045648E-02
(PID.TID 0000.0001) %MON seaice_vice_min              =  -3.0387575095055E-02
(PID.TID 0000.0001) %MON seaice_vice_mean             =   3.5229641387704E-06
(PID.TID 0000.0001) %MON seaice_vice_sd               =   1.3116750887229E-02
(PID.TID 0000.0001) %MON seaice_vice_del2             =   3.9434825376322E-06
(PID.TID 0000.0001) %MON seaice_area_max              =   1.0000000000000E+00
(PID.TID 0000.0001) %MON seaice_area_min              =   9.9998797365325E-01
(PID.TID 0000.0001) %MON seaice_area_mean             =   9.9999929951091E-01
(PID.TID 0000.0001) %MON seaice_area_sd               =   1.6132741676686E-06
(PID.TID 0000.0001) %MON seaice_area_del2             =   1.9861376453767E-08
(PID.TID 0000.0001) %MON seaice_heff_max              =   3.0999848560789E-01
(PID.TID 0000.0001) %MON seaice_heff_min              =   2.9006037330759E-01
(PID.TID 0000.0001) %MON seaice_heff_mean             =   3.0067126525963E-01
(PID.TID 0000.0001) %MON seaice_heff_sd               =   5.0069251724862E-03
(PID.TID 0000.0001) %MON seaice_heff_del2             =   1.2853737850432E-05
(PID.TID 0000.0001) %MON seaice_hsnow_max             =   0.0000000000000E+00
(PID.TID 0000.0001) %MON seaice_hsnow_min             =   0.0000000000000E+00
(PID.TID 0000.0001) %MON seaice_hsnow_mean            =   0.0000000000000E+00
(PID.TID 0000.0001) %MON seaice_hsnow_sd              =   0.0000000000000E+00
(PID.TID 0000.0001) %MON seaice_hsnow_del2            =   0.0000000000000E+00
(PID.TID 0000.0001) // =======================================================
(PID.TID 0000.0001) // End MONITOR SEAICE statistics
(PID.TID 0000.0001) // =======================================================
 Computing Diagnostic #    163  SIuice       Counter:       1   Parms: UU      M1      
           Vector  Mate for  SIuice       Diagnostic #    164  SIvice   exists 
 Computing Diagnostic #    164  SIvice       Counter:       1   Parms: VV      M1      
           Vector  Mate for  SIvice       Diagnostic #    163  SIuice   exists 
 Computing Diagnostic #    149  SIheff       Counter:       1   Parms: SM      M1      
 Computing Diagnostic #    146  SIarea       Counter:       1   Parms: SM      M1      
 Computing Diagnostic #    228  SIshear      Counter:       1   Parms: SM      M1      
 Computing Diagnostic #    233  SIcohes      Counter:       1   Parms: SM      M1      
 Computing Diagnostic #    221  SIsig1       Counter:       1   Parms: SM      M1      
 Computing Diagnostic #    222  SIsig2       Counter:       1   Parms: SM      M1      
 Computing Diagnostic #    231  SIdamage     Counter:       1   Parms: SM      M1      
 Computing Diagnostic #    165  SItaux       Counter:       1   Parms: UU      U1      
           Vector  Mate for  SItaux       Diagnostic #    166  SItauy   exists 
 Computing Diagnostic #    166  SItauy       Counter:       1   Parms: VV      U1      
           Vector  Mate for  SItauy       Diagnostic #    165  SItaux   exists 
 Computing Diagnostic #    133  EXFuwind     Counter:       1   Parms: UM      U1      
 Computing Diagnostic #    134  EXFvwind     Counter:       1   Parms: VM      U1      
(PID.TID 0000.0001)  S/R SEAICE_KRYLOV: Picard iterate / total, KRYLOVgamma_lin, initial norm =       1   1801 0.10000E+00 0.10754E+00
(PID.TID 0000.0001)  S/R SEAICE_KRYLOV: Picard iterate / total =      1 /   1801, Nb. of FGMRES iterations =      1
(PID.TID 0000.0001)  S/R SEAICE_KRYLOV: Picard iterate / total, KRYLOVgamma_lin, initial norm =       2   1802 0.50000E-01 0.12803E-03
(PID.TID 0000.0001)  S/R SEAICE_KRYLOV: Picard iterate / total =      2 /   1802, Nb. of FGMRES iterations =      1
(PID.TID 0000.0001)  S/R SEAICE_KRYLOV: Picard iterate / total, KRYLOVgamma_lin, initial norm =       3   1803 0.50000E-01 0.30784E-04
(PID.TID 0000.0001)  S/R SEAICE_KRYLOV: Picard iterate / total =      3 /   1803, Nb. of FGMRES iterations =      1
(PID.TID 0000.0001)  S/R SEAICE_KRYLOV: Picard iterate / total, KRYLOVgamma_lin, initial norm =       4   1804 0.33333E-01 0.16246E-04
(PID.TID 0000.0001)  S/R SEAICE_KRYLOV: Picard iterate / total =      4 /   1804, Nb. of FGMRES iterations =      1
(PID.TID 0000.0001)  S/R SEAICE_KRYLOV: Picard iterate / total, KRYLOVgamma_lin, initial norm =       5   1805 0.33333E-01 0.80428E-05
(PID.TID 0000.0001)  S/R SEAICE_KRYLOV: Picard iterate / total =      5 /   1805, Nb. of FGMRES iterations =      1
(PID.TID 0000.0001)  S/R SEAICE_KRYLOV: Picard iterate / total, KRYLOVgamma_lin, initial norm =       6   1806 0.33333E-01 0.40269E-05
(PID.TID 0000.0001)  S/R SEAICE_KRYLOV: Picard iterate / total =      6 /   1806, Nb. of FGMRES iterations =      1
(PID.TID 0000.0001)  S/R SEAICE_KRYLOV: Picard iterate / total, KRYLOVgamma_lin, initial norm =       7   1807 0.33333E-01 0.20130E-05
(PID.TID 0000.0001)  S/R SEAICE_KRYLOV: Picard iterate / total =      7 /   1807, Nb. of FGMRES iterations =      1
(PID.TID 0000.0001)  S/R SEAICE_KRYLOV: Picard iterate / total, KRYLOVgamma_lin, initial norm =       8   1808 0.25000E-01 0.10065E-05
(PID.TID 0000.0001)  S/R SEAICE_KRYLOV: Picard iterate / total =      8 /   1808, Nb. of FGMRES iterations =      1
(PID.TID 0000.0001)  S/R SEAICE_KRYLOV: Picard iterate / total, KRYLOVgamma_lin, initial norm =       9   1809 0.20000E-01 0.50327E-06
(PID.TID 0000.0001)  S/R SEAICE_KRYLOV: Picard iterate / total =      9 /   1809, Nb. of FGMRES iterations =      1
(PID.TID 0000.0001)  S/R SEAICE_KRYLOV: Picard iterate / total, KRYLOVgamma_lin, initial norm =      10   1810 0.12500E-01 0.25164E-06
(PID.TID 0000.0001)  S/R SEAICE_KRYLOV: Picard iterate / total =     10 /   1810, Nb. of FGMRES iterations =      1
(PID.TID 0000.0001)  S/R SEAICE_KRYLOV: Picard iterate / total, KRYLOVgamma_lin, initial norm =      11   1811 0.12500E-01 0.12582E-06
(PID.TID 0000.0001)  S/R SEAICE_KRYLOV: Picard iterate / total =     11 /   1811, Nb. of FGMRES iterations =      1
(PID.TID 0000.0001)  S/R SEAICE_KRYLOV: Picard iterate / total, KRYLOVgamma_lin, initial norm =      12   1812 0.12500E-01 0.62909E-07
(PID.TID 0000.0001)  S/R SEAICE_KRYLOV: Picard iterate / total =     12 /   1812, Nb. of FGMRES iterations =      1
(PID.TID 0000.0001)  S/R SEAICE_KRYLOV: Picard iterate / total, KRYLOVgamma_lin, initial norm =      13   1813 0.12500E-01 0.31455E-07
(PID.TID 0000.0001)  S/R SEAICE_KRYLOV: Picard iterate / total =     13 /   1813, Nb. of FGMRES iterations =      1
(PID.TID 0000.0001)  S/R SEAICE_KRYLOV: Picard iterate / total, KRYLOVgamma_lin, initial norm =      14   1814 0.12500E-01 0.15727E-07
(PID.TID 0000.0001)  S/R SEAICE_KRYLOV: Picard iterate / total =     14 /   1814, Nb. of FGMRES iterations =      1
(PID.TID 0000.0001)  S/R SEAICE_KRYLOV: Picard iterate / total, KRYLOVgamma_lin, initial norm =      15   1815 0.12500E-01 0.78636E-08
(PID.TID 0000.0001)  S/R SEAICE_KRYLOV: Picard iterate / total =     15 /   1815, Nb. of FGMRES iterations =      1
(PID.TID 0000.0001)  S/R SEAICE_KRYLOV: Picard iterate / total, KRYLOVgamma_lin, initial norm =      16   1816 0.12500E-01 0.39318E-08
(PID.TID 0000.0001)  S/R SEAICE_KRYLOV: Picard iterate / total =     16 /   1816, Nb. of FGMRES iterations =      1
(PID.TID 0000.0001)  S/R SEAICE_KRYLOV: Picard iterate / total, KRYLOVgamma_lin, initial norm =      17   1817 0.12500E-01 0.19659E-08
(PID.TID 0000.0001)  S/R SEAICE_KRYLOV: Picard iterate / total =     17 /   1817, Nb. of FGMRES iterations =      1
(PID.TID 0000.0001)  S/R SEAICE_KRYLOV: Picard iterate / total, KRYLOVgamma_lin, initial norm =      18   1818 0.12500E-01 0.98295E-09
(PID.TID 0000.0001)  S/R SEAICE_KRYLOV: Picard iterate / total =     18 /   1818, Nb. of FGMRES iterations =      1
(PID.TID 0000.0001)  S/R SEAICE_KRYLOV: Picard iterate / total, KRYLOVgamma_lin, initial norm =      19   1819 0.12500E-01 0.49148E-09
(PID.TID 0000.0001)  S/R SEAICE_KRYLOV: Picard iterate / total =     19 /   1819, Nb. of FGMRES iterations =      1
(PID.TID 0000.0001)  S/R SEAICE_KRYLOV: Picard iterate / total, KRYLOVgamma_lin, initial norm =      20   1820 0.12500E-01 0.24574E-09
(PID.TID 0000.0001)  S/R SEAICE_KRYLOV: Picard iterate / total =     20 /   1820, Nb. of FGMRES iterations =      1
(PID.TID 0000.0001)  S/R SEAICE_KRYLOV: Picard iterate / total, KRYLOVgamma_lin, initial norm =      21   1821 0.12500E-01 0.12287E-09
(PID.TID 0000.0001)  S/R SEAICE_KRYLOV: Picard iterate / total =     21 /   1821, Nb. of FGMRES iterations =      1
(PID.TID 0000.0001)  S/R SEAICE_KRYLOV: Picard iterate / total, KRYLOVgamma_lin, initial norm =      22   1822 0.12500E-01 0.61435E-10
(PID.TID 0000.0001)  S/R SEAICE_KRYLOV: Picard iterate / total =     22 /   1822, Nb. of FGMRES iterations =      1
(PID.TID 0000.0001)  S/R SEAICE_KRYLOV: Picard iterate / total, KRYLOVgamma_lin, initial norm =      23   1823 0.12500E-01 0.30717E-10
(PID.TID 0000.0001)  S/R SEAICE_KRYLOV: Picard iterate / total =     23 /   1823, Nb. of FGMRES iterations =      1
(PID.TID 0000.0001)  S/R SEAICE_KRYLOV: Picard iterate / total, KRYLOVgamma_lin, initial norm =      24   1824 0.12500E-01 0.15359E-10
(PID.TID 0000.0001)  S/R SEAICE_KRYLOV: Picard iterate / total =     24 /   1824, Nb. of FGMRES iterations =      1
(PID.TID 0000.0001)  S/R SEAICE_KRYLOV: Picard iterate / total, KRYLOVgamma_lin, initial norm =      25   1825 0.12500E-01 0.76793E-11
(PID.TID 0000.0001)  S/R SEAICE_KRYLOV: Picard iterate / total =     25 /   1825, Nb. of FGMRES iterations =      1
(PID.TID 0000.0001)  S/R SEAICE_KRYLOV: Picard iterate / total, KRYLOVgamma_lin, initial norm =      26   1826 0.12500E-01 0.38397E-11
(PID.TID 0000.0001)  S/R SEAICE_KRYLOV: Picard iterate / total =     26 /   1826, Nb. of FGMRES iterations =      1
(PID.TID 0000.0001)  S/R SEAICE_KRYLOV: Picard iterate / total, KRYLOVgamma_lin, initial norm =      27   1827 0.12500E-01 0.19198E-11
(PID.TID 0000.0001)  S/R SEAICE_KRYLOV: Picard iterate / total =     27 /   1827, Nb. of FGMRES iterations =      1
(PID.TID 0000.0001)  S/R SEAICE_KRYLOV: Picard iterate / total, KRYLOVgamma_lin, initial norm =      28   1828 0.12500E-01 0.95992E-12
(PID.TID 0000.0001)  S/R SEAICE_KRYLOV: Picard iterate / total =     28 /   1828, Nb. of FGMRES iterations =      1
(PID.TID 0000.0001)  S/R SEAICE_KRYLOV: Picard iterate / total, KRYLOVgamma_lin, initial norm =      29   1829 0.12500E-01 0.47995E-12
(PID.TID 0000.0001)  S/R SEAICE_KRYLOV: Picard iterate / total =     29 /   1829, Nb. of FGMRES iterations =      1
(PID.TID 0000.0001)  S/R SEAICE_KRYLOV: Picard iterate / total, KRYLOVgamma_lin, initial norm =      30   1830 0.12500E-01 0.23998E-12
(PID.TID 0000.0001)  S/R SEAICE_KRYLOV: Picard iterate / total =     30 /   1830, Nb. of FGMRES iterations =      1
(PID.TID 0000.0001)  S/R SEAICE_KRYLOV: Picard iterate / total, KRYLOVgamma_lin, initial norm =      31   1831 0.12500E-01 0.11999E-12
(PID.TID 0000.0001)  S/R SEAICE_KRYLOV: Picard iterate / total =     31 /   1831, Nb. of FGMRES iterations =      1
(PID.TID 0000.0001)  S/R SEAICE_KRYLOV: Picard iterate / total, KRYLOVgamma_lin, final   norm =      32   1832 0.12500E-01 0.59992E-13
(PID.TID 0000.0001)  // =======================================================
(PID.TID 0000.0001)  // Begin KRYLOV statistics
(PID.TID 0000.0001)  // =======================================================
(PID.TID 0000.0001)  %KRYLOV_MON: time step              =         19
(PID.TID 0000.0001)  %KRYLOV_MON: Nb. of time steps      =          1
(PID.TID 0000.0001)  %KRYLOV_MON: Nb. of Picard steps    =         32
(PID.TID 0000.0001)  %KRYLOV_MON: Nb. of Krylov steps    =         31
(PID.TID 0000.0001)  %KRYLOV_MON: Nb. of Picard failures =          0
(PID.TID 0000.0001)  %KRYLOV_MON: Nb. of Krylov failures =          0
(PID.TID 0000.0001)  // =======================================================
(PID.TID 0000.0001)  // End KRYLOV statistics
(PID.TID 0000.0001)  // =======================================================
(PID.TID 0000.0001)  S/R SEAICE_KRYLOV: Total number FGMRES iterations =     31 in timestep         19
(PID.TID 0000.0001) // =======================================================
(PID.TID 0000.0001) // Begin MONITOR dynamic field statistics
(PID.TID 0000.0001) // =======================================================
(PID.TID 0000.0001) %MON time_tsnumber                =                    19
(PID.TID 0000.0001) %MON time_secondsf                =   4.7500000000000E+01
(PID.TID 0000.0001) %MON dynstat_eta_max              =   0.0000000000000E+00
(PID.TID 0000.0001) %MON dynstat_eta_min              =   0.0000000000000E+00
(PID.TID 0000.0001) %MON dynstat_eta_mean             =   0.0000000000000E+00
(PID.TID 0000.0001) %MON dynstat_eta_sd               =   0.0000000000000E+00
(PID.TID 0000.0001) %MON dynstat_eta_del2             =   0.0000000000000E+00
(PID.TID 0000.0001) %MON dynstat_uvel_max             =   9.8437500000000E-03
(PID.TID 0000.0001) %MON dynstat_uvel_min             =  -9.8437500000000E-03
(PID.TID 0000.0001) %MON dynstat_uvel_mean            =   0.0000000000000E+00
(PID.TID 0000.0001) %MON dynstat_uvel_sd              =   5.7727978755972E-03
(PID.TID 0000.0001) %MON dynstat_uvel_del2            =   1.0089048364799E-20
(PID.TID 0000.0001) %MON dynstat_vvel_max             =   9.8437500000000E-03
(PID.TID 0000.0001) %MON dynstat_vvel_min             =  -9.8437500000000E-03
(PID.TID 0000.0001) %MON dynstat_vvel_mean            =   0.0000000000000E+00
(PID.TID 0000.0001) %MON dynstat_vvel_sd              =   5.7727978755972E-03
(PID.TID 0000.0001) %MON dynstat_vvel_del2            =   1.0089048364799E-20
(PID.TID 0000.0001) %MON dynstat_wvel_max             =   1.1914062500000E-05
(PID.TID 0000.0001) %MON dynstat_wvel_min             =  -1.1914062500000E-05
(PID.TID 0000.0001) %MON dynstat_wvel_mean            =   3.4694469519536E-25
(PID.TID 0000.0001) %MON dynstat_wvel_sd              =   1.7200872247780E-06
(PID.TID 0000.0001) %MON dynstat_wvel_del2            =   2.8187489626940E-08
(PID.TID 0000.0001) %MON dynstat_theta_max            =  -1.6200000000000E+00
(PID.TID 0000.0001) %MON dynstat_theta_min            =  -1.6200000000000E+00
(PID.TID 0000.0001) %MON dynstat_theta_mean           =  -1.6200000000000E+00
(PID.TID 0000.0001) %MON dynstat_theta_sd             =   0.0000000000000E+00
(PID.TID 0000.0001) %MON dynstat_theta_del2           =   0.0000000000000E+00
(PID.TID 0000.0001) %MON dynstat_salt_max             =   3.0000000000000E+01
(PID.TID 0000.0001) %MON dynstat_salt_min             =   3.0000000000000E+01
(PID.TID 0000.0001) %MON dynstat_salt_mean            =   3.0000000000000E+01
(PID.TID 0000.0001) %MON dynstat_salt_sd              =   0.0000000000000E+00
(PID.TID 0000.0001) %MON dynstat_salt_del2            =   0.0000000000000E+00
(PID.TID 0000.0001) %MON trAdv_CFL_u_max              =   3.0761718750000E-06
(PID.TID 0000.0001) %MON trAdv_CFL_v_max              =   3.0761718750000E-06
(PID.TID 0000.0001) %MON trAdv_CFL_w_max              =   2.9785156250000E-06
(PID.TID 0000.0001) %MON advcfl_uvel_max              =   3.0761718750000E-06
(PID.TID 0000.0001) %MON advcfl_vvel_max              =   3.0761718750000E-06
(PID.TID 0000.0001) %MON advcfl_wvel_max              =   5.9570312500000E-06
(PID.TID 0000.0001) %MON advcfl_W_hf_max              =   0.0000000000000E+00
(PID.TID 0000.0001) %MON pe_b_mean                    =   0.0000000000000E+00
(PID.TID 0000.0001) %MON ke_max                       =   9.0844726562500E-05
(PID.TID 0000.0001) %MON ke_mean                      =   3.2804489135742E-05
(PID.TID 0000.0001) %MON ke_vol                       =   2.6214400000000E+12
(PID.TID 0000.0001) %MON vort_r_min                   =  -7.8125000000000E-08
(PID.TID 0000.0001) %MON vort_r_max                   =   1.2304687500000E-06
(PID.TID 0000.0001) %MON vort_a_mean                  =   1.4856000000000E-04
(PID.TID 0000.0001) %MON vort_a_sd                    =   1.5312918562496E-06
(PID.TID 0000.0001) %MON vort_p_mean                  =   1.5552375000000E-04
(PID.TID 0000.0001) %MON vort_p_sd                    =   5.5921473110222E-05
(PID.TID 0000.0001) %MON surfExpan_theta_mean         =   0.0000000000000E+00
(PID.TID 0000.0001) %MON surfExpan_salt_mean          =   1.3877787807814E-23
(PID.TID 0000.0001) // =======================================================
(PID.TID 0000.0001) // End MONITOR dynamic field statistics
(PID.TID 0000.0001) // =======================================================
(PID.TID 0000.0001) // =======================================================
(PID.TID 0000.0001) // Begin MONITOR SEAICE statistics
(PID.TID 0000.0001) // =======================================================
(PID.TID 0000.0001) %MON seaice_tsnumber              =                    19
(PID.TID 0000.0001) %MON seaice_time_sec              =   4.7500000000000E+01
(PID.TID 0000.0001) %MON seaice_uice_max              =   3.2459272683758E-02
(PID.TID 0000.0001) %MON seaice_uice_min              =  -3.2937703895582E-02
(PID.TID 0000.0001) %MON seaice_uice_mean             =  -8.9882307616862E-07
(PID.TID 0000.0001) %MON seaice_uice_sd               =   1.3888058777862E-02
(PID.TID 0000.0001) %MON seaice_uice_del2             =   4.1547769845746E-06
(PID.TID 0000.0001) %MON seaice_vice_max              =   3.1626504154384E-02
(PID.TID 0000.0001) %MON seaice_vice_min              =  -3.2055501471742E-02
(PID.TID 0000.0001) %MON seaice_vice_mean             =   3.7083759965100E-06
(PID.TID 0000.0001) %MON seaice_vice_sd               =   1.3824279721389E-02
(PID.TID 0000.0001) %MON seaice_vice_del2             =   4.1573122245012E-06
(PID.TID 0000.0001) %MON seaice_area_max              =   1.0000000000000E+00
(PID.TID 0000.0001) %MON seaice_area_min              =   9.9998660596022E-01
(PID.TID 0000.0001) %MON seaice_area_mean             =   9.9999922296006E-01
(PID.TID 0000.0001) %MON seaice_area_sd               =   1.7965610234308E-06
(PID.TID 0000.0001) %MON seaice_area_del2             =   2.2215064708124E-08
(PID.TID 0000.0001) %MON seaice_heff_max              =   3.0999846489031E-01
(PID.TID 0000.0001) %MON seaice_heff_min              =   2.9006035212891E-01
(PID.TID 0000.0001) %MON seaice_heff_mean             =   3.0067126525963E-01
(PID.TID 0000.0001) %MON seaice_heff_sd               =   5.0069252494128E-03
(PID.TID 0000.0001) %MON seaice_heff_del2             =   1.2853736695522E-05
(PID.TID 0000.0001) %MON seaice_hsnow_max             =   0.0000000000000E+00
(PID.TID 0000.0001) %MON seaice_hsnow_min             =   0.0000000000000E+00
(PID.TID 0000.0001) %MON seaice_hsnow_mean            =   0.0000000000000E+00
(PID.TID 0000.0001) %MON seaice_hsnow_sd              =   0.0000000000000E+00
(PID.TID 0000.0001) %MON seaice_hsnow_del2            =   0.0000000000000E+00
(PID.TID 0000.0001) // =======================================================
(PID.TID 0000.0001) // End MONITOR SEAICE statistics
(PID.TID 0000.0001) // =======================================================
 Computing Diagnostic #    163  SIuice       Counter:       1   Parms: UU      M1      
           Vector  Mate for  SIuice       Diagnostic #    164  SIvice   exists 
 Computing Diagnostic #    164  SIvice       Counter:       1   Parms: VV      M1      
           Vector  Mate for  SIvice       Diagnostic #    163  SIuice   exists 
 Computing Diagnostic #    149  SIheff       Counter:       1   Parms: SM      M1      
 Computing Diagnostic #    146  SIarea       Counter:       1   Parms: SM      M1      
 Computing Diagnostic #    228  SIshear      Counter:       1   Parms: SM      M1      
 Computing Diagnostic #    233  SIcohes      Counter:       1   Parms: SM      M1      
 Computing Diagnostic #    221  SIsig1       Counter:       1   Parms: SM      M1      
 Computing Diagnostic #    222  SIsig2       Counter:       1   Parms: SM      M1      
 Computing Diagnostic #    231  SIdamage     Counter:       1   Parms: SM      M1      
 Computing Diagnostic #    165  SItaux       Counter:       1   Parms: UU      U1      
           Vector  Mate for  SItaux       Diagnostic #    166  SItauy   exists 
 Computing Diagnostic #    166  SItauy       Counter:       1   Parms: VV      U1      
           Vector  Mate for  SItauy       Diagnostic #    165  SItaux   exists 
 Computing Diagnostic #    133  EXFuwind     Counter:       1   Parms: UM      U1      
 Computing Diagnostic #    134  EXFvwind     Counter:       1   Parms: VM      U1      
(PID.TID 0000.0001)  S/R SEAICE_KRYLOV: Picard iterate / total, KRYLOVgamma_lin, initial norm =       1   1901 0.10000E+00 0.10724E+00
(PID.TID 0000.0001)  S/R SEAICE_KRYLOV: Picard iterate / total =      1 /   1901, Nb. of FGMRES iterations =      1
(PID.TID 0000.0001)  S/R SEAICE_KRYLOV: Picard iterate / total, KRYLOVgamma_lin, initial norm =       2   1902 0.50000E-01 0.12043E-03
(PID.TID 0000.0001)  S/R SEAICE_KRYLOV: Picard iterate / total =      2 /   1902, Nb. of FGMRES iterations =      1
(PID.TID 0000.0001)  S/R SEAICE_KRYLOV: Picard iterate / total, KRYLOVgamma_lin, initial norm =       3   1903 0.50000E-01 0.28849E-04
(PID.TID 0000.0001)  S/R SEAICE_KRYLOV: Picard iterate / total =      3 /   1903, Nb. of FGMRES iterations =      1
(PID.TID 0000.0001)  S/R SEAICE_KRYLOV: Picard iterate / total, KRYLOVgamma_lin, initial norm =       4   1904 0.33333E-01 0.15216E-04
(PID.TID 0000.0001)  S/R SEAICE_KRYLOV: Picard iterate / total =      4 /   1904, Nb. of FGMRES iterations =      1
(PID.TID 0000.0001)  S/R SEAICE_KRYLOV: Picard iterate / total, KRYLOVgamma_lin, initial norm =       5   1905 0.33333E-01 0.75374E-05
(PID.TID 0000.0001)  S/R SEAICE_KRYLOV: Picard iterate / total =      5 /   1905, Nb. of FGMRES iterations =      1
(PID.TID 0000.0001)  S/R SEAICE_KRYLOV: Picard iterate / total, KRYLOVgamma_lin, initial norm =       6   1906 0.33333E-01 0.37734E-05
(PID.TID 0000.0001)  S/R SEAICE_KRYLOV: Picard iterate / total =      6 /   1906, Nb. of FGMRES iterations =      1
(PID.TID 0000.0001)  S/R SEAICE_KRYLOV: Picard iterate / total, KRYLOVgamma_lin, initial norm =       7   1907 0.33333E-01 0.18864E-05
(PID.TID 0000.0001)  S/R SEAICE_KRYLOV: Picard iterate / total =      7 /   1907, Nb. of FGMRES iterations =      1
(PID.TID 0000.0001)  S/R SEAICE_KRYLOV: Picard iterate / total, KRYLOVgamma_lin, initial norm =       8   1908 0.25000E-01 0.94321E-06
(PID.TID 0000.0001)  S/R SEAICE_KRYLOV: Picard iterate / total =      8 /   1908, Nb. of FGMRES iterations =      1
(PID.TID 0000.0001)  S/R SEAICE_KRYLOV: Picard iterate / total, KRYLOVgamma_lin, initial norm =       9   1909 0.20000E-01 0.47160E-06
(PID.TID 0000.0001)  S/R SEAICE_KRYLOV: Picard iterate / total =      9 /   1909, Nb. of FGMRES iterations =      1
(PID.TID 0000.0001)  S/R SEAICE_KRYLOV: Picard iterate / total, KRYLOVgamma_lin, initial norm =      10   1910 0.12500E-01 0.23580E-06
(PID.TID 0000.0001)  S/R SEAICE_KRYLOV: Picard iterate / total =     10 /   1910, Nb. of FGMRES iterations =      1
(PID.TID 0000.0001)  S/R SEAICE_KRYLOV: Picard iterate / total, KRYLOVgamma_lin, initial norm =      11   1911 0.12500E-01 0.11790E-06
(PID.TID 0000.0001)  S/R SEAICE_KRYLOV: Picard iterate / total =     11 /   1911, Nb. of FGMRES iterations =      1
(PID.TID 0000.0001)  S/R SEAICE_KRYLOV: Picard iterate / total, KRYLOVgamma_lin, initial norm =      12   1912 0.12500E-01 0.58950E-07
(PID.TID 0000.0001)  S/R SEAICE_KRYLOV: Picard iterate / total =     12 /   1912, Nb. of FGMRES iterations =      1
(PID.TID 0000.0001)  S/R SEAICE_KRYLOV: Picard iterate / total, KRYLOVgamma_lin, initial norm =      13   1913 0.12500E-01 0.29475E-07
(PID.TID 0000.0001)  S/R SEAICE_KRYLOV: Picard iterate / total =     13 /   1913, Nb. of FGMRES iterations =      1
(PID.TID 0000.0001)  S/R SEAICE_KRYLOV: Picard iterate / total, KRYLOVgamma_lin, initial norm =      14   1914 0.12500E-01 0.14738E-07
(PID.TID 0000.0001)  S/R SEAICE_KRYLOV: Picard iterate / total =     14 /   1914, Nb. of FGMRES iterations =      1
(PID.TID 0000.0001)  S/R SEAICE_KRYLOV: Picard iterate / total, KRYLOVgamma_lin, initial norm =      15   1915 0.12500E-01 0.73688E-08
(PID.TID 0000.0001)  S/R SEAICE_KRYLOV: Picard iterate / total =     15 /   1915, Nb. of FGMRES iterations =      1
(PID.TID 0000.0001)  S/R SEAICE_KRYLOV: Picard iterate / total, KRYLOVgamma_lin, initial norm =      16   1916 0.12500E-01 0.36844E-08
(PID.TID 0000.0001)  S/R SEAICE_KRYLOV: Picard iterate / total =     16 /   1916, Nb. of FGMRES iterations =      1
(PID.TID 0000.0001)  S/R SEAICE_KRYLOV: Picard iterate / total, KRYLOVgamma_lin, initial norm =      17   1917 0.12500E-01 0.18422E-08
(PID.TID 0000.0001)  S/R SEAICE_KRYLOV: Picard iterate / total =     17 /   1917, Nb. of FGMRES iterations =      1
(PID.TID 0000.0001)  S/R SEAICE_KRYLOV: Picard iterate / total, KRYLOVgamma_lin, initial norm =      18   1918 0.12500E-01 0.92110E-09
(PID.TID 0000.0001)  S/R SEAICE_KRYLOV: Picard iterate / total =     18 /   1918, Nb. of FGMRES iterations =      1
(PID.TID 0000.0001)  S/R SEAICE_KRYLOV: Picard iterate / total, KRYLOVgamma_lin, initial norm =      19   1919 0.12500E-01 0.46055E-09
(PID.TID 0000.0001)  S/R SEAICE_KRYLOV: Picard iterate / total =     19 /   1919, Nb. of FGMRES iterations =      1
(PID.TID 0000.0001)  S/R SEAICE_KRYLOV: Picard iterate / total, KRYLOVgamma_lin, initial norm =      20   1920 0.12500E-01 0.23027E-09
(PID.TID 0000.0001)  S/R SEAICE_KRYLOV: Picard iterate / total =     20 /   1920, Nb. of FGMRES iterations =      1
(PID.TID 0000.0001)  S/R SEAICE_KRYLOV: Picard iterate / total, KRYLOVgamma_lin, initial norm =      21   1921 0.12500E-01 0.11514E-09
(PID.TID 0000.0001)  S/R SEAICE_KRYLOV: Picard iterate / total =     21 /   1921, Nb. of FGMRES iterations =      1
(PID.TID 0000.0001)  S/R SEAICE_KRYLOV: Picard iterate / total, KRYLOVgamma_lin, initial norm =      22   1922 0.12500E-01 0.57569E-10
(PID.TID 0000.0001)  S/R SEAICE_KRYLOV: Picard iterate / total =     22 /   1922, Nb. of FGMRES iterations =      1
(PID.TID 0000.0001)  S/R SEAICE_KRYLOV: Picard iterate / total, KRYLOVgamma_lin, initial norm =      23   1923 0.12500E-01 0.28784E-10
(PID.TID 0000.0001)  S/R SEAICE_KRYLOV: Picard iterate / total =     23 /   1923, Nb. of FGMRES iterations =      1
(PID.TID 0000.0001)  S/R SEAICE_KRYLOV: Picard iterate / total, KRYLOVgamma_lin, initial norm =      24   1924 0.12500E-01 0.14392E-10
(PID.TID 0000.0001)  S/R SEAICE_KRYLOV: Picard iterate / total =     24 /   1924, Nb. of FGMRES iterations =      1
(PID.TID 0000.0001)  S/R SEAICE_KRYLOV: Picard iterate / total, KRYLOVgamma_lin, initial norm =      25   1925 0.12500E-01 0.71961E-11
(PID.TID 0000.0001)  S/R SEAICE_KRYLOV: Picard iterate / total =     25 /   1925, Nb. of FGMRES iterations =      1
(PID.TID 0000.0001)  S/R SEAICE_KRYLOV: Picard iterate / total, KRYLOVgamma_lin, initial norm =      26   1926 0.12500E-01 0.35980E-11
(PID.TID 0000.0001)  S/R SEAICE_KRYLOV: Picard iterate / total =     26 /   1926, Nb. of FGMRES iterations =      1
(PID.TID 0000.0001)  S/R SEAICE_KRYLOV: Picard iterate / total, KRYLOVgamma_lin, initial norm =      27   1927 0.12500E-01 0.17990E-11
(PID.TID 0000.0001)  S/R SEAICE_KRYLOV: Picard iterate / total =     27 /   1927, Nb. of FGMRES iterations =      1
(PID.TID 0000.0001)  S/R SEAICE_KRYLOV: Picard iterate / total, KRYLOVgamma_lin, initial norm =      28   1928 0.12500E-01 0.89951E-12
(PID.TID 0000.0001)  S/R SEAICE_KRYLOV: Picard iterate / total =     28 /   1928, Nb. of FGMRES iterations =      1
(PID.TID 0000.0001)  S/R SEAICE_KRYLOV: Picard iterate / total, KRYLOVgamma_lin, initial norm =      29   1929 0.12500E-01 0.44975E-12
(PID.TID 0000.0001)  S/R SEAICE_KRYLOV: Picard iterate / total =     29 /   1929, Nb. of FGMRES iterations =      1
(PID.TID 0000.0001)  S/R SEAICE_KRYLOV: Picard iterate / total, KRYLOVgamma_lin, initial norm =      30   1930 0.12500E-01 0.22488E-12
(PID.TID 0000.0001)  S/R SEAICE_KRYLOV: Picard iterate / total =     30 /   1930, Nb. of FGMRES iterations =      1
(PID.TID 0000.0001)  S/R SEAICE_KRYLOV: Picard iterate / total, KRYLOVgamma_lin, initial norm =      31   1931 0.12500E-01 0.11244E-12
(PID.TID 0000.0001)  S/R SEAICE_KRYLOV: Picard iterate / total =     31 /   1931, Nb. of FGMRES iterations =      1
(PID.TID 0000.0001)  S/R SEAICE_KRYLOV: Picard iterate / total, KRYLOVgamma_lin, final   norm =      32   1932 0.12500E-01 0.56226E-13
(PID.TID 0000.0001)  // =======================================================
(PID.TID 0000.0001)  // Begin KRYLOV statistics
(PID.TID 0000.0001)  // =======================================================
(PID.TID 0000.0001)  %KRYLOV_MON: time step              =         20
(PID.TID 0000.0001)  %KRYLOV_MON: Nb. of time steps      =          1
(PID.TID 0000.0001)  %KRYLOV_MON: Nb. of Picard steps    =         32
(PID.TID 0000.0001)  %KRYLOV_MON: Nb. of Krylov steps    =         31
(PID.TID 0000.0001)  %KRYLOV_MON: Nb. of Picard failures =          0
(PID.TID 0000.0001)  %KRYLOV_MON: Nb. of Krylov failures =          0
(PID.TID 0000.0001)  // =======================================================
(PID.TID 0000.0001)  // End KRYLOV statistics
(PID.TID 0000.0001)  // =======================================================
(PID.TID 0000.0001)  S/R SEAICE_KRYLOV: Total number FGMRES iterations =     31 in timestep         20
(PID.TID 0000.0001) // =======================================================
(PID.TID 0000.0001) // Begin MONITOR dynamic field statistics
(PID.TID 0000.0001) // =======================================================
(PID.TID 0000.0001) %MON time_tsnumber                =                    20
(PID.TID 0000.0001) %MON time_secondsf                =   5.0000000000000E+01
(PID.TID 0000.0001) %MON dynstat_eta_max              =   0.0000000000000E+00
(PID.TID 0000.0001) %MON dynstat_eta_min              =   0.0000000000000E+00
(PID.TID 0000.0001) %MON dynstat_eta_mean             =   0.0000000000000E+00
(PID.TID 0000.0001) %MON dynstat_eta_sd               =   0.0000000000000E+00
(PID.TID 0000.0001) %MON dynstat_eta_del2             =   0.0000000000000E+00
(PID.TID 0000.0001) %MON dynstat_uvel_max             =   9.8437500000000E-03
(PID.TID 0000.0001) %MON dynstat_uvel_min             =  -9.8437500000000E-03
(PID.TID 0000.0001) %MON dynstat_uvel_mean            =   0.0000000000000E+00
(PID.TID 0000.0001) %MON dynstat_uvel_sd              =   5.7727978755972E-03
(PID.TID 0000.0001) %MON dynstat_uvel_del2            =   1.0089048364799E-20
(PID.TID 0000.0001) %MON dynstat_vvel_max             =   9.8437500000000E-03
(PID.TID 0000.0001) %MON dynstat_vvel_min             =  -9.8437500000000E-03
(PID.TID 0000.0001) %MON dynstat_vvel_mean            =   0.0000000000000E+00
(PID.TID 0000.0001) %MON dynstat_vvel_sd              =   5.7727978755972E-03
(PID.TID 0000.0001) %MON dynstat_vvel_del2            =   1.0089048364799E-20
(PID.TID 0000.0001) %MON dynstat_wvel_max             =   1.1914062500000E-05
(PID.TID 0000.0001) %MON dynstat_wvel_min             =  -1.1914062500000E-05
(PID.TID 0000.0001) %MON dynstat_wvel_mean            =   3.4694469519536E-25
(PID.TID 0000.0001) %MON dynstat_wvel_sd              =   1.7200872247780E-06
(PID.TID 0000.0001) %MON dynstat_wvel_del2            =   2.8187489626940E-08
(PID.TID 0000.0001) %MON dynstat_theta_max            =  -1.6200000000000E+00
(PID.TID 0000.0001) %MON dynstat_theta_min            =  -1.6200000000000E+00
(PID.TID 0000.0001) %MON dynstat_theta_mean           =  -1.6200000000000E+00
(PID.TID 0000.0001) %MON dynstat_theta_sd             =   0.0000000000000E+00
(PID.TID 0000.0001) %MON dynstat_theta_del2           =   0.0000000000000E+00
(PID.TID 0000.0001) %MON dynstat_salt_max             =   3.0000000000000E+01
(PID.TID 0000.0001) %MON dynstat_salt_min             =   3.0000000000000E+01
(PID.TID 0000.0001) %MON dynstat_salt_mean            =   3.0000000000000E+01
(PID.TID 0000.0001) %MON dynstat_salt_sd              =   0.0000000000000E+00
(PID.TID 0000.0001) %MON dynstat_salt_del2            =   0.0000000000000E+00
(PID.TID 0000.0001) %MON trAdv_CFL_u_max              =   3.0761718750000E-06
(PID.TID 0000.0001) %MON trAdv_CFL_v_max              =   3.0761718750000E-06
(PID.TID 0000.0001) %MON trAdv_CFL_w_max              =   2.9785156250000E-06
(PID.TID 0000.0001) %MON advcfl_uvel_max              =   3.0761718750000E-06
(PID.TID 0000.0001) %MON advcfl_vvel_max              =   3.0761718750000E-06
(PID.TID 0000.0001) %MON advcfl_wvel_max              =   5.9570312500000E-06
(PID.TID 0000.0001) %MON advcfl_W_hf_max              =   0.0000000000000E+00
(PID.TID 0000.0001) %MON pe_b_mean                    =   0.0000000000000E+00
(PID.TID 0000.0001) %MON ke_max                       =   9.0844726562500E-05
(PID.TID 0000.0001) %MON ke_mean                      =   3.2804489135742E-05
(PID.TID 0000.0001) %MON ke_vol                       =   2.6214400000000E+12
(PID.TID 0000.0001) %MON vort_r_min                   =  -7.8125000000000E-08
(PID.TID 0000.0001) %MON vort_r_max                   =   1.2304687500000E-06
(PID.TID 0000.0001) %MON vort_a_mean                  =   1.4856000000000E-04
(PID.TID 0000.0001) %MON vort_a_sd                    =   1.5312918562496E-06
(PID.TID 0000.0001) %MON vort_p_mean                  =   1.5552375000000E-04
(PID.TID 0000.0001) %MON vort_p_sd                    =   5.5921473110222E-05
(PID.TID 0000.0001) %MON surfExpan_theta_mean         =   0.0000000000000E+00
(PID.TID 0000.0001) %MON surfExpan_salt_mean          =   1.3877787807814E-23
(PID.TID 0000.0001) // =======================================================
(PID.TID 0000.0001) // End MONITOR dynamic field statistics
(PID.TID 0000.0001) // =======================================================
(PID.TID 0000.0001) // =======================================================
(PID.TID 0000.0001) // Begin MONITOR SEAICE statistics
(PID.TID 0000.0001) // =======================================================
(PID.TID 0000.0001) %MON seaice_tsnumber              =                    20
(PID.TID 0000.0001) %MON seaice_time_sec              =   5.0000000000000E+01
(PID.TID 0000.0001) %MON seaice_uice_max              =   3.4141689120010E-02
(PID.TID 0000.0001) %MON seaice_uice_min              =  -3.4634126919204E-02
(PID.TID 0000.0001) %MON seaice_uice_mean             =  -9.6061796557013E-07
(PID.TID 0000.0001) %MON seaice_uice_sd               =   1.4596560323522E-02
(PID.TID 0000.0001) %MON seaice_uice_del2             =   4.3749462543484E-06
(PID.TID 0000.0001) %MON seaice_vice_max              =   3.3262699676291E-02
(PID.TID 0000.0001) %MON seaice_vice_min              =  -3.3725528766040E-02
(PID.TID 0000.0001) %MON seaice_vice_mean             =   3.8901018672810E-06
(PID.TID 0000.0001) %MON seaice_vice_sd               =   1.4529788584976E-02
(PID.TID 0000.0001) %MON seaice_vice_del2             =   4.3798543124108E-06
(PID.TID 0000.0001) %MON seaice_area_max              =   1.0000000000000E+00
(PID.TID 0000.0001) %MON seaice_area_min              =   9.9998516346227E-01
(PID.TID 0000.0001) %MON seaice_area_mean             =   9.9999914252520E-01
(PID.TID 0000.0001) %MON seaice_area_sd               =   1.9899067442598E-06
(PID.TID 0000.0001) %MON seaice_area_del2             =   2.4706408260744E-08
(PID.TID 0000.0001) %MON seaice_heff_max              =   3.0999844309124E-01
(PID.TID 0000.0001) %MON seaice_heff_min              =   2.9006032986523E-01
(PID.TID 0000.0001) %MON seaice_heff_mean             =   3.0067126525963E-01
(PID.TID 0000.0001) %MON seaice_heff_sd               =   5.0069252732502E-03
(PID.TID 0000.0001) %MON seaice_heff_del2             =   1.2853735539773E-05
(PID.TID 0000.0001) %MON seaice_hsnow_max             =   0.0000000000000E+00
(PID.TID 0000.0001) %MON seaice_hsnow_min             =   0.0000000000000E+00
(PID.TID 0000.0001) %MON seaice_hsnow_mean            =   0.0000000000000E+00
(PID.TID 0000.0001) %MON seaice_hsnow_sd              =   0.0000000000000E+00
(PID.TID 0000.0001) %MON seaice_hsnow_del2            =   0.0000000000000E+00
(PID.TID 0000.0001) // =======================================================
(PID.TID 0000.0001) // End MONITOR SEAICE statistics
(PID.TID 0000.0001) // =======================================================
 Computing Diagnostic #    163  SIuice       Counter:       1   Parms: UU      M1      
           Vector  Mate for  SIuice       Diagnostic #    164  SIvice   exists 
 Computing Diagnostic #    164  SIvice       Counter:       1   Parms: VV      M1      
           Vector  Mate for  SIvice       Diagnostic #    163  SIuice   exists 
 Computing Diagnostic #    149  SIheff       Counter:       1   Parms: SM      M1      
 Computing Diagnostic #    146  SIarea       Counter:       1   Parms: SM      M1      
 Computing Diagnostic #    228  SIshear      Counter:       1   Parms: SM      M1      
 Computing Diagnostic #    233  SIcohes      Counter:       1   Parms: SM      M1      
 Computing Diagnostic #    221  SIsig1       Counter:       1   Parms: SM      M1      
 Computing Diagnostic #    222  SIsig2       Counter:       1   Parms: SM      M1      
 Computing Diagnostic #    231  SIdamage     Counter:       1   Parms: SM      M1      
 Computing Diagnostic #    165  SItaux       Counter:       1   Parms: UU      U1      
           Vector  Mate for  SItaux       Diagnostic #    166  SItauy   exists 
 Computing Diagnostic #    166  SItauy       Counter:       1   Parms: VV      U1      
           Vector  Mate for  SItauy       Diagnostic #    165  SItaux   exists 
 Computing Diagnostic #    133  EXFuwind     Counter:       1   Parms: UM      U1      
 Computing Diagnostic #    134  EXFvwind     Counter:       1   Parms: VM      U1      
(PID.TID 0000.0001) %CHECKPOINT        20 ckptA
(PID.TID 0000.0001)   Seconds in section "ALL                    [THE_MODEL_MAIN]":
(PID.TID 0000.0001)           User time:   33.913157779257745
(PID.TID 0000.0001)         System time:   2.4003000929951668E-002
(PID.TID 0000.0001)     Wall clock time:   33.938789844512939
(PID.TID 0000.0001)          No. starts:           1
(PID.TID 0000.0001)           No. stops:           1
(PID.TID 0000.0001)   Seconds in section "INITIALISE_FIXED       [THE_MODEL_MAIN]":
(PID.TID 0000.0001)           User time:   2.6035999879240990E-002
(PID.TID 0000.0001)         System time:   4.0409998036921024E-003
(PID.TID 0000.0001)     Wall clock time:   3.0078887939453125E-002
(PID.TID 0000.0001)          No. starts:           1
(PID.TID 0000.0001)           No. stops:           1
(PID.TID 0000.0001)   Seconds in section "THE_MAIN_LOOP          [THE_MODEL_MAIN]":
(PID.TID 0000.0001)           User time:   33.887080147862434
(PID.TID 0000.0001)         System time:   1.9961000885814428E-002
(PID.TID 0000.0001)     Wall clock time:   33.908682823181152
(PID.TID 0000.0001)          No. starts:           1
(PID.TID 0000.0001)           No. stops:           1
(PID.TID 0000.0001)   Seconds in section "INITIALISE_VARIA    [THE_MAIN_LOOP]":
(PID.TID 0000.0001)           User time:   1.5500001609325409E-002
(PID.TID 0000.0001)         System time:   7.9190004616975784E-003
(PID.TID 0000.0001)     Wall clock time:   2.3419857025146484E-002
(PID.TID 0000.0001)          No. starts:           1
(PID.TID 0000.0001)           No. stops:           1
(PID.TID 0000.0001)   Seconds in section "MAIN LOOP           [THE_MAIN_LOOP]":
(PID.TID 0000.0001)           User time:   33.871563334017992
(PID.TID 0000.0001)         System time:   1.2040001340210438E-002
(PID.TID 0000.0001)     Wall clock time:   33.885242938995361
(PID.TID 0000.0001)          No. starts:           1
(PID.TID 0000.0001)           No. stops:           1
(PID.TID 0000.0001)   Seconds in section "MAIN_DO_LOOP        [THE_MAIN_LOOP]":
(PID.TID 0000.0001)           User time:   33.871438603848219
(PID.TID 0000.0001)         System time:   1.2038000859320164E-002
(PID.TID 0000.0001)     Wall clock time:   33.885118961334229
(PID.TID 0000.0001)          No. starts:          20
(PID.TID 0000.0001)           No. stops:          20
(PID.TID 0000.0001)   Seconds in section "FORWARD_STEP        [MAIN_DO_LOOP]":
(PID.TID 0000.0001)           User time:   33.871199592947960
(PID.TID 0000.0001)         System time:   1.2037000618875027E-002
(PID.TID 0000.0001)     Wall clock time:   33.884876966476440
(PID.TID 0000.0001)          No. starts:          20
(PID.TID 0000.0001)           No. stops:          20
(PID.TID 0000.0001)   Seconds in section "DO_STATEVARS_DIAGS  [FORWARD_STEP]":
(PID.TID 0000.0001)           User time:   4.1250772774219513E-003
(PID.TID 0000.0001)         System time:   4.5000575482845306E-005
(PID.TID 0000.0001)     Wall clock time:   4.1878223419189453E-003
(PID.TID 0000.0001)          No. starts:          40
(PID.TID 0000.0001)           No. stops:          40
(PID.TID 0000.0001)   Seconds in section "LOAD_FIELDS_DRIVER  [FORWARD_STEP]":
(PID.TID 0000.0001)           User time:   7.7935807406902313E-002
(PID.TID 0000.0001)         System time:   2.9200036078691483E-004
(PID.TID 0000.0001)     Wall clock time:   7.8228712081909180E-002
(PID.TID 0000.0001)          No. starts:          20
(PID.TID 0000.0001)           No. stops:          20
(PID.TID 0000.0001)   Seconds in section "EXF_GETFORCING     [LOAD_FLDS_DRIVER]":
(PID.TID 0000.0001)           User time:   7.7412564307451248E-002
(PID.TID 0000.0001)         System time:   2.8499960899353027E-004
(PID.TID 0000.0001)     Wall clock time:   7.7710151672363281E-002
(PID.TID 0000.0001)          No. starts:          20
(PID.TID 0000.0001)           No. stops:          20
(PID.TID 0000.0001)   Seconds in section "EXTERNAL_FLDS_LOAD [LOAD_FLDS_DRIVER]":
(PID.TID 0000.0001)           User time:   1.3602524995803833E-004
(PID.TID 0000.0001)         System time:   2.9997900128364563E-006
(PID.TID 0000.0001)     Wall clock time:   1.3899803161621094E-004
(PID.TID 0000.0001)          No. starts:          20
(PID.TID 0000.0001)           No. stops:          20
(PID.TID 0000.0001)   Seconds in section "DO_ATMOSPHERIC_PHYS [FORWARD_STEP]":
(PID.TID 0000.0001)           User time:   1.1634081602096558E-004
(PID.TID 0000.0001)         System time:   9.9930912256240845E-007
(PID.TID 0000.0001)     Wall clock time:   1.2207031250000000E-004
(PID.TID 0000.0001)          No. starts:          20
(PID.TID 0000.0001)           No. stops:          20
(PID.TID 0000.0001)   Seconds in section "DO_OCEANIC_PHYS     [FORWARD_STEP]":
(PID.TID 0000.0001)           User time:   33.477049253880978
(PID.TID 0000.0001)         System time:   3.7009986117482185E-003
(PID.TID 0000.0001)     Wall clock time:   33.482359170913696
(PID.TID 0000.0001)          No. starts:          20
(PID.TID 0000.0001)           No. stops:          20
(PID.TID 0000.0001)   Seconds in section "SEAICE_MODEL    [DO_OCEANIC_PHYS]":
(PID.TID 0000.0001)           User time:   33.466594625264406
(PID.TID 0000.0001)         System time:   3.6949999630451202E-003
(PID.TID 0000.0001)     Wall clock time:   33.471894264221191
(PID.TID 0000.0001)          No. starts:          20
(PID.TID 0000.0001)           No. stops:          20
(PID.TID 0000.0001)   Seconds in section "SEAICE_DYNSOLVER   [SEAICE_MODEL]":
(PID.TID 0000.0001)           User time:   33.367652341723442
(PID.TID 0000.0001)         System time:   3.6739995703101158E-003
(PID.TID 0000.0001)     Wall clock time:   33.372950315475464
(PID.TID 0000.0001)          No. starts:          20
(PID.TID 0000.0001)           No. stops:          20
(PID.TID 0000.0001)   Seconds in section "STRESS_ADV        [SEAICE_ADVDIFF]":
(PID.TID 0000.0001)           User time:   1.3518333435058594E-004
(PID.TID 0000.0001)         System time:   0.0000000000000000
(PID.TID 0000.0001)     Wall clock time:   1.2397766113281250E-004
(PID.TID 0000.0001)          No. starts:          20
(PID.TID 0000.0001)           No. stops:          20
(PID.TID 0000.0001)   Seconds in section "THERMODYNAMICS      [FORWARD_STEP]":
(PID.TID 0000.0001)           User time:   1.0742187500000000E-002
(PID.TID 0000.0001)         System time:   2.0004808902740479E-006
(PID.TID 0000.0001)     Wall clock time:   1.0754108428955078E-002
(PID.TID 0000.0001)          No. starts:          20
(PID.TID 0000.0001)           No. stops:          20
(PID.TID 0000.0001)   Seconds in section "TRC_CORRECTION_STEP [FORWARD_STEP]":
(PID.TID 0000.0001)           User time:   1.1873245239257812E-004
(PID.TID 0000.0001)         System time:   0.0000000000000000
(PID.TID 0000.0001)     Wall clock time:   1.2183189392089844E-004
(PID.TID 0000.0001)          No. starts:          20
(PID.TID 0000.0001)           No. stops:          20
(PID.TID 0000.0001)   Seconds in section "BLOCKING_EXCHANGES  [FORWARD_STEP]":
(PID.TID 0000.0001)           User time:   2.2078752517700195E-003
(PID.TID 0000.0001)         System time:   0.0000000000000000
(PID.TID 0000.0001)     Wall clock time:   2.2194385528564453E-003
(PID.TID 0000.0001)          No. starts:          20
(PID.TID 0000.0001)           No. stops:          20
(PID.TID 0000.0001)   Seconds in section "MONITOR             [FORWARD_STEP]":
(PID.TID 0000.0001)           User time:  0.10374212265014648
(PID.TID 0000.0001)         System time:   2.0004808902740479E-006
(PID.TID 0000.0001)     Wall clock time:  0.10376024246215820
(PID.TID 0000.0001)          No. starts:          20
(PID.TID 0000.0001)           No. stops:          20
(PID.TID 0000.0001)   Seconds in section "DO_THE_MODEL_IO     [FORWARD_STEP]":
(PID.TID 0000.0001)           User time:  0.19044888019561768
(PID.TID 0000.0001)         System time:   7.9900007694959641E-003
(PID.TID 0000.0001)     Wall clock time:  0.19849085807800293
(PID.TID 0000.0001)          No. starts:          20
(PID.TID 0000.0001)           No. stops:          20
(PID.TID 0000.0001)   Seconds in section "DO_WRITE_PICKUP     [FORWARD_STEP]":
(PID.TID 0000.0001)           User time:   3.1805038452148438E-003
(PID.TID 0000.0001)         System time:   0.0000000000000000
(PID.TID 0000.0001)     Wall clock time:   3.1778812408447266E-003
(PID.TID 0000.0001)          No. starts:          20
(PID.TID 0000.0001)           No. stops:          20
(PID.TID 0000.0001) // ======================================================
(PID.TID 0000.0001) // Tile <-> Tile communication statistics
(PID.TID 0000.0001) // ======================================================
(PID.TID 0000.0001) // o Tile number: 000001
(PID.TID 0000.0001) //         No. X exchanges =              0
(PID.TID 0000.0001) //            Max. X spins =              0
(PID.TID 0000.0001) //            Min. X spins =     1000000000
(PID.TID 0000.0001) //          Total. X spins =              0
(PID.TID 0000.0001) //            Avg. X spins =       0.00E+00
(PID.TID 0000.0001) //         No. Y exchanges =              0
(PID.TID 0000.0001) //            Max. Y spins =              0
(PID.TID 0000.0001) //            Min. Y spins =     1000000000
(PID.TID 0000.0001) //          Total. Y spins =              0
(PID.TID 0000.0001) //            Avg. Y spins =       0.00E+00
(PID.TID 0000.0001) // o Thread number: 000001
(PID.TID 0000.0001) //            No. barriers =          11318
(PID.TID 0000.0001) //      Max. barrier spins =              1
(PID.TID 0000.0001) //      Min. barrier spins =              1
(PID.TID 0000.0001) //     Total barrier spins =          11318
(PID.TID 0000.0001) //      Avg. barrier spins =       1.00E+00
PROGRAM MAIN: Execution ended Normally
