(PID.TID 0000.0001) 
(PID.TID 0000.0001) // ======================================================
(PID.TID 0000.0001) //                      MITgcm UV
(PID.TID 0000.0001) //                      =========
(PID.TID 0000.0001) // ======================================================
(PID.TID 0000.0001) // execution environment starting up...
(PID.TID 0000.0001) 
(PID.TID 0000.0001) // MITgcmUV version:  checkpoint68e
(PID.TID 0000.0001) // Build user:        mbourget
(PID.TID 0000.0001) // Build host:        bkli04m075.dmawi.de
(PID.TID 0000.0001) // Build date:        Thu Feb 22 12:09:35 CET 2024
(PID.TID 0000.0001) 
(PID.TID 0000.0001) // =======================================================
(PID.TID 0000.0001) // Execution Environment parameter file "eedata"
(PID.TID 0000.0001) // =======================================================
(PID.TID 0000.0001) ># Example "eedata" file
(PID.TID 0000.0001) ># Lines beginning "#" are comments
(PID.TID 0000.0001) ># nTx - No. threads per process in X
(PID.TID 0000.0001) ># nTy - No. threads per process in Y
(PID.TID 0000.0001) > &EEPARMS
(PID.TID 0000.0001) > nTx=1,
(PID.TID 0000.0001) > nTy=1,
(PID.TID 0000.0001) > /
(PID.TID 0000.0001) 
(PID.TID 0000.0001) // =======================================================
(PID.TID 0000.0001) // Computational Grid Specification ( see files "SIZE.h" )
(PID.TID 0000.0001) //                                  ( and "eedata"       )
(PID.TID 0000.0001) // =======================================================
(PID.TID 0000.0001)      nPx =    1 ; /* No. processes in X */
(PID.TID 0000.0001)      nPy =    1 ; /* No. processes in Y */
(PID.TID 0000.0001)      nSx =    1 ; /* No. tiles in X per process */
(PID.TID 0000.0001)      nSy =    1 ; /* No. tiles in Y per process */
(PID.TID 0000.0001)      sNx =   65 ; /* Tile size in X */
(PID.TID 0000.0001)      sNy =   65 ; /* Tile size in Y */
(PID.TID 0000.0001)      OLx =    4 ; /* Tile overlap distance in X */
(PID.TID 0000.0001)      OLy =    4 ; /* Tile overlap distance in Y */
(PID.TID 0000.0001)      nTx =    1 ; /* No. threads in X per process */
(PID.TID 0000.0001)      nTy =    1 ; /* No. threads in Y per process */
(PID.TID 0000.0001)       Nr =    1 ; /* No. levels in the vertical   */
(PID.TID 0000.0001)       Nx =   65 ; /* Total domain size in X ( = nPx*nSx*sNx ) */
(PID.TID 0000.0001)       Ny =   65 ; /* Total domain size in Y ( = nPy*nSy*sNy ) */
(PID.TID 0000.0001)   nTiles =    1 ; /* Total no. tiles per process ( = nSx*nSy ) */
(PID.TID 0000.0001)   nProcs =    1 ; /* Total no. processes ( = nPx*nPy ) */
(PID.TID 0000.0001) nThreads =    1 ; /* Total no. threads per process ( = nTx*nTy ) */
(PID.TID 0000.0001) usingMPI =    F ; /* Flag used to control whether MPI is in use */
(PID.TID 0000.0001)                   /*  note: To execute a program with MPI calls */
(PID.TID 0000.0001)                   /*  it must be launched appropriately e.g     */
(PID.TID 0000.0001)                   /*  "mpirun -np 64 ......"                    */
(PID.TID 0000.0001) useCoupler=   F ; /* Flag used to control communications with   */
(PID.TID 0000.0001)                   /*  other model components, through a coupler */
(PID.TID 0000.0001) useNest2W_parent =    F ;/* Control 2-W Nesting comm */
(PID.TID 0000.0001) useNest2W_child  =    F ;/* Control 2-W Nesting comm */
(PID.TID 0000.0001) debugMode =    F ; /* print debug msg. (sequence of S/R calls)  */
(PID.TID 0000.0001) printMapIncludesZeros=    F ; /* print zeros in Std.Output maps */
(PID.TID 0000.0001) maxLengthPrt1D=   65 /* maxLength of 1D array printed to StdOut */
(PID.TID 0000.0001) 
(PID.TID 0000.0001) // ======================================================
(PID.TID 0000.0001) // Mapping of tiles to threads
(PID.TID 0000.0001) // ======================================================
(PID.TID 0000.0001) // -o- Thread   1, tiles (   1:   1,   1:   1)
(PID.TID 0000.0001) 
(PID.TID 0000.0001) // ======================================================
(PID.TID 0000.0001) // Tile <-> Tile connectvity table
(PID.TID 0000.0001) // ======================================================
(PID.TID 0000.0001) // Tile number: 000001 (process no. = 000000)
(PID.TID 0000.0001) //        WEST: Tile = 000001, Process = 000000, Comm = put
(PID.TID 0000.0001) //                bi = 000001, bj = 000001
(PID.TID 0000.0001) //        EAST: Tile = 000001, Process = 000000, Comm = put
(PID.TID 0000.0001) //                bi = 000001, bj = 000001
(PID.TID 0000.0001) //       SOUTH: Tile = 000001, Process = 000000, Comm = put
(PID.TID 0000.0001) //                bi = 000001, bj = 000001
(PID.TID 0000.0001) //       NORTH: Tile = 000001, Process = 000000, Comm = put
(PID.TID 0000.0001) //                bi = 000001, bj = 000001
(PID.TID 0000.0001) 
(PID.TID 0000.0001)  INI_PARMS: opening model parameter file "data"
(PID.TID 0000.0001)  OPEN_COPY_DATA_FILE: opening file data
(PID.TID 0000.0001) // =======================================================
(PID.TID 0000.0001) // Parameter file "data"
(PID.TID 0000.0001) // =======================================================
(PID.TID 0000.0001) >/ =======================================================
(PID.TID 0000.0001) >/ Parameter file "data"
(PID.TID 0000.0001) >/ =======================================================
(PID.TID 0000.0001) ># ====================
(PID.TID 0000.0001) ># | Model parameters |
(PID.TID 0000.0001) ># ====================
(PID.TID 0000.0001) >#
(PID.TID 0000.0001) > &PARM01
(PID.TID 0000.0001) > tRef= -1.62,
(PID.TID 0000.0001) > sRef= 30.,
(PID.TID 0000.0001) > HeatCapacity_Cp = 3986.,
(PID.TID 0000.0001) > rhoNil          = 1026.,
(PID.TID 0000.0001) > rhoConst        = 1026.,
(PID.TID 0000.0001) > rhoConstFresh   = 1000.,
(PID.TID 0000.0001) > f0=1.46e-4,
(PID.TID 0000.0001) > saltStepping=.FALSE.,
(PID.TID 0000.0001) > tempStepping=.FALSE.,
(PID.TID 0000.0001) > momStepping=.FALSE.,
(PID.TID 0000.0001) > readBinaryPrec=64,
(PID.TID 0000.0001) > writeBinaryPrec=32,
(PID.TID 0000.0001) > useSingleCpuIO=.TRUE.,
(PID.TID 0000.0001) >#debugLevel=4,
(PID.TID 0000.0001) > /
(PID.TID 0000.0001) >
(PID.TID 0000.0001) ># Elliptic solver parameters
(PID.TID 0000.0001) > &PARM02
(PID.TID 0000.0001) > cg2dMaxIters=500,
(PID.TID 0000.0001) > cg2dTargetResidual=1.E-12,
(PID.TID 0000.0001) > /
(PID.TID 0000.0001) >
(PID.TID 0000.0001) ># Time stepping parameters
(PID.TID 0000.0001) > &PARM03
(PID.TID 0000.0001) > startTime=0.0,
(PID.TID 0000.0001) ># 2 days
(PID.TID 0000.0001) >#endTime = 172800.,
(PID.TID 0000.0001) >#nTimeSteps = 1441,
(PID.TID 0000.0001) > nTimeSteps = 20,
(PID.TID 0000.0001) > deltaT=2.5,
(PID.TID 0000.0001) > abEps=0.1,
(PID.TID 0000.0001) > forcing_In_AB = .FALSE.,
(PID.TID 0000.0001) > dumpFreq  = 0.,
(PID.TID 0000.0001) > monitorSelect=2,
(PID.TID 0000.0001) > /
(PID.TID 0000.0001) >
(PID.TID 0000.0001) ># Gridding parameters
(PID.TID 0000.0001) > &PARM04
(PID.TID 0000.0001) > usingCartesianGrid=.TRUE.,
(PID.TID 0000.0001) > dxSpacing=8.E3,
(PID.TID 0000.0001) > dySpacing=8.E3,
(PID.TID 0000.0001) > delR= 10.,
(PID.TID 0000.0001) > /
(PID.TID 0000.0001) >
(PID.TID 0000.0001) ># Input datasets
(PID.TID 0000.0001) > &PARM05
(PID.TID 0000.0001) > bathyFile       = 'bathy_3c_8000.bin',
(PID.TID 0000.0001) > uVelInitFile    = 'uVel_8000.bin',
(PID.TID 0000.0001) > vVelInitFile    = 'vVel_8000.bin',
(PID.TID 0000.0001) > /
(PID.TID 0000.0001) 
(PID.TID 0000.0001)  INI_PARMS ; starts to read PARM01
(PID.TID 0000.0001)  INI_PARMS ; read PARM01 : OK
(PID.TID 0000.0001) S/R INI_PARMS: No request for barotropic solver
(PID.TID 0000.0001) S/R INI_PARMS: => Use implicitFreeSurface as default
(PID.TID 0000.0001)  INI_PARMS ; starts to read PARM02
(PID.TID 0000.0001)  INI_PARMS ; read PARM02 : OK
(PID.TID 0000.0001)  INI_PARMS ; starts to read PARM03
(PID.TID 0000.0001)  INI_PARMS ; read PARM03 : OK
(PID.TID 0000.0001)  INI_PARMS ; starts to read PARM04
(PID.TID 0000.0001)  INI_PARMS ; read PARM04 : OK
(PID.TID 0000.0001)  INI_PARMS ; starts to read PARM05
(PID.TID 0000.0001)  INI_PARMS ; read PARM05 : OK
(PID.TID 0000.0001)  INI_PARMS: finished reading file "data"
(PID.TID 0000.0001)  PACKAGES_BOOT: opening data.pkg
(PID.TID 0000.0001)  OPEN_COPY_DATA_FILE: opening file data.pkg
(PID.TID 0000.0001) // =======================================================
(PID.TID 0000.0001) // Parameter file "data.pkg"
(PID.TID 0000.0001) // =======================================================
(PID.TID 0000.0001) ># Packages
(PID.TID 0000.0001) > &PACKAGES
(PID.TID 0000.0001) >  useEXF    = .TRUE.,
(PID.TID 0000.0001) >  useSEAICE = .TRUE.,
(PID.TID 0000.0001) >  useDiagnostics=.TRUE.,
(PID.TID 0000.0001) > /
(PID.TID 0000.0001) 
(PID.TID 0000.0001)  PACKAGES_BOOT: finished reading data.pkg
(PID.TID 0000.0001) ** WARNING ** PACKAGES_BOOT: useCAL no longer set to T when using EXF (useEXF=T)
(PID.TID 0000.0001) ** WARNING ** PACKAGES_BOOT:  as it used to be before checkpoint66d (2017/02/13)
(PID.TID 0000.0001)  PACKAGES_BOOT: On/Off package Summary
 --------  pkgs with a standard "usePKG" On/Off switch in "data.pkg":  --------
 pkg/cal                  compiled but not used ( useCAL                   = F )
 pkg/exf                  compiled   and   used ( useEXF                   = T )
 pkg/seaice               compiled   and   used ( useSEAICE                = T )
 pkg/thsice               compiled but not used ( useThSIce                = F )
 pkg/diagnostics          compiled   and   used ( useDiagnostics           = T )
 -------- pkgs without standard "usePKG" On/Off switch in "data.pkg":  --------
 pkg/generic_advdiff      compiled but not used ( useGAD                   = F )
 pkg/mom_common           compiled but not used ( momStepping              = F )
 pkg/mom_vecinv           compiled but not used ( +vectorInvariantMomentum = F )
 pkg/mom_fluxform         compiled but not used ( & not vectorInvariantMom = F )
 pkg/monitor              compiled   and   used ( monitorFreq > 0.         = T )
 pkg/debug                compiled but not used ( debugMode                = F )
 pkg/rw                   compiled   and   used
 pkg/mdsio                compiled   and   used
(PID.TID 0000.0001)  PACKAGES_BOOT: End of package Summary
(PID.TID 0000.0001) 
(PID.TID 0000.0001) EXF_READPARMS: opening data.exf
(PID.TID 0000.0001)  OPEN_COPY_DATA_FILE: opening file data.exf
(PID.TID 0000.0001) // =======================================================
(PID.TID 0000.0001) // Parameter file "data.exf"
(PID.TID 0000.0001) // =======================================================
(PID.TID 0000.0001) >#
(PID.TID 0000.0001) ># *********************
(PID.TID 0000.0001) ># External Forcing Data
(PID.TID 0000.0001) ># *********************
(PID.TID 0000.0001) > &EXF_NML_01
(PID.TID 0000.0001) >#
(PID.TID 0000.0001) > useExfCheckRange  = .TRUE.,
(PID.TID 0000.0001) > repeatPeriod      = 1382400.0,
(PID.TID 0000.0001) > exf_iprec         = 64,
(PID.TID 0000.0001) > exf_monFreq       = 86400000.,
(PID.TID 0000.0001) > atmrho            = 1.3,
(PID.TID 0000.0001) >#useRelativeWind = .TRUE.,
(PID.TID 0000.0001) >#
(PID.TID 0000.0001) > /
(PID.TID 0000.0001) >
(PID.TID 0000.0001) ># *********************
(PID.TID 0000.0001) > &EXF_NML_02
(PID.TID 0000.0001) >#
(PID.TID 0000.0001) >#uwindstartdate1   = 00000101,
(PID.TID 0000.0001) >#uwindstartdate2   = 000000,
(PID.TID 0000.0001) > uwindperiod       = 10800.0,
(PID.TID 0000.0001) >#
(PID.TID 0000.0001) >#vwindstartdate1   = 00000101,
(PID.TID 0000.0001) >#vwindstartdate2   = 000000,
(PID.TID 0000.0001) > vwindperiod       = 10800.0,
(PID.TID 0000.0001) >#
(PID.TID 0000.0001) > uwindfile         = 'Uwindfield_shifted_8000.bin',
(PID.TID 0000.0001) > vwindfile         = 'Vwindfield_shifted_8000.bin',
(PID.TID 0000.0001) > /
(PID.TID 0000.0001) >
(PID.TID 0000.0001) ># *********************
(PID.TID 0000.0001) > &EXF_NML_03
(PID.TID 0000.0001) > /
(PID.TID 0000.0001) >
(PID.TID 0000.0001) ># *********************
(PID.TID 0000.0001) ># old open64 compiler (4.2.1) cannot skip this namelist to read in the next one;
(PID.TID 0000.0001) ># comment out this namelist (not read).
(PID.TID 0000.0001) >#&EXF_NML_04
(PID.TID 0000.0001) >#&
(PID.TID 0000.0001) >
(PID.TID 0000.0001) ># *********************
(PID.TID 0000.0001) > &EXF_NML_OBCS
(PID.TID 0000.0001) > /
(PID.TID 0000.0001) 
(PID.TID 0000.0001) EXF_READPARMS: reading EXF_NML_01
(PID.TID 0000.0001) EXF_READPARMS: reading EXF_NML_02
(PID.TID 0000.0001) EXF_READPARMS: reading EXF_NML_03
(PID.TID 0000.0001) EXF_READPARMS: finished reading data.exf
(PID.TID 0000.0001) 
(PID.TID 0000.0001)  SEAICE_READPARMS: opening data.seaice
(PID.TID 0000.0001)  OPEN_COPY_DATA_FILE: opening file data.seaice
(PID.TID 0000.0001) // =======================================================
(PID.TID 0000.0001) // Parameter file "data.seaice"
(PID.TID 0000.0001) // =======================================================
(PID.TID 0000.0001) ># SEAICE parameters
(PID.TID 0000.0001) > &SEAICE_PARM01
(PID.TID 0000.0001) > SEAICE_monFreq = 1.,
(PID.TID 0000.0001) > SEAICE_dumpFreq= 1.,
(PID.TID 0000.0001) > SEAICEwriteState = .TRUE.,
(PID.TID 0000.0001) > usePW79thermodynamics=.FALSE.,
(PID.TID 0000.0001) >#SEAICE_strength    = 27.5e+3,
(PID.TID 0000.0001) >#meb
(PID.TID 0000.0001) > SEAICE_strength    = 5.0e+8,
(PID.TID 0000.0001) > SEAICEcohesion     = 25.0e+1,
(PID.TID 0000.0001) > SEAICEhealingTime = 1e+5,
(PID.TID 0000.0001) > SEAICEuseIMEX= .TRUE.,
(PID.TID 0000.0001) > SEAICEuseMEB   = .TRUE.,
(PID.TID 0000.0001) > SEAICEupdateDamage = .TRUE.,
(PID.TID 0000.0001) > SEAICEuseKrylov = .TRUE.,
(PID.TID 0000.0001) > SEAICEdamageTime = 8.,
(PID.TID 0000.0001) >#SEAICEscaleSurfStress = .FALSE.,
(PID.TID 0000.0001) > SEAICE_rhoIce      = 900.,
(PID.TID 0000.0001) > SEAICE_drag        = 1.2e-3,
(PID.TID 0000.0001) > SEAICE_waterDrag   = 5.5e-3,
(PID.TID 0000.0001) > SEAICE_no_Slip     = .TRUE.,
(PID.TID 0000.0001) > SEAICE_deltaMin    = 2.e-9,
(PID.TID 0000.0001) >#SEAICEpressReplFac = 0.,
(PID.TID 0000.0001) > SEAICEuseJFNK       = .FALSE.,
(PID.TID 0000.0001) > SEAICEnonLinIterMax = 100,
(PID.TID 0000.0001) > SEAICEpreconLinIter = 10,
(PID.TID 0000.0001) > SEAICElinearIterMax = 50,
(PID.TID 0000.0001) > SEAICEnonLinTol     = 1.e-12,
(PID.TID 0000.0001) > SEAICE_JFNK_lsIter  = 10,
(PID.TID 0000.0001) > SEAICE_JFNK_tolIter = 50,
(PID.TID 0000.0001) > JFNKres_tFac        = 0.5,
(PID.TID 0000.0001) >#SEAICE_JFNKepsilon  = 1.D-06,
(PID.TID 0000.0001) > SEAICE_JFNKphi      = 0.7,
(PID.TID 0000.0001) > SEAICE_JFNKalpha    = 1.5,
(PID.TID 0000.0001) > SEAICEadvScheme    = 77,
(PID.TID 0000.0001) >#SEAICEadvSnow = .FALSE.,
(PID.TID 0000.0001) >#SEAICEadvHEFF = .FALSE.,
(PID.TID 0000.0001) >#SEAICEadvAREA = .FALSE.,
(PID.TID 0000.0001) >#SEAICEadvStress = .FALSE.,
(PID.TID 0000.0001) >#SEAICE_initialHeff = 0.3,
(PID.TID 0000.0001) > HeffFile  = 'thickness_aniso_8000.bin',
(PID.TID 0000.0001) > AreaFile  = 'const_1.0_8000.bin',
(PID.TID 0000.0001) > HsnowFile = 'const_00_8000.bin',
(PID.TID 0000.0001) >#CohesFile = 'cohesion_8000.bin',
(PID.TID 0000.0001) > /
(PID.TID 0000.0001) >
(PID.TID 0000.0001) > &SEAICE_PARM03
(PID.TID 0000.0001) > /
(PID.TID 0000.0001) 
(PID.TID 0000.0001)  SEAICE_READPARMS: finished reading data.seaice
(PID.TID 0000.0001)  DIAGNOSTICS_READPARMS: opening data.diagnostics
(PID.TID 0000.0001)  OPEN_COPY_DATA_FILE: opening file data.diagnostics
(PID.TID 0000.0001) // =======================================================
(PID.TID 0000.0001) // Parameter file "data.diagnostics"
(PID.TID 0000.0001) // =======================================================
(PID.TID 0000.0001) ># Diagnostic Package Choices
(PID.TID 0000.0001) >#--------------------
(PID.TID 0000.0001) >#  dumpAtLast (logical): always write output at the end of simulation (default=F)
(PID.TID 0000.0001) >#  diag_mnc   (logical): write to NetCDF files (default=useMNC)
(PID.TID 0000.0001) >#--for each output-stream:
(PID.TID 0000.0001) >#  fileName(n) : prefix of the output file name (max 80c long) for outp.stream n
(PID.TID 0000.0001) >#  frequency(n):< 0 : write snap-shot output every |frequency| seconds
(PID.TID 0000.0001) >#               > 0 : write time-average output every frequency seconds
(PID.TID 0000.0001) >#  timePhase(n)     : write at time = timePhase + multiple of |frequency|
(PID.TID 0000.0001) >#    averagingFreq  : frequency (in s) for periodic averaging interval
(PID.TID 0000.0001) >#    averagingPhase : phase     (in s) for periodic averaging interval
(PID.TID 0000.0001) >#    repeatCycle    : number of averaging intervals in 1 cycle
(PID.TID 0000.0001) >#  levels(:,n) : list of levels to write to file (Notes: declared as REAL)
(PID.TID 0000.0001) >#                when this entry is missing, select all common levels of this list
(PID.TID 0000.0001) >#  fields(:,n) : list of selected diagnostics fields (8.c) in outp.stream n
(PID.TID 0000.0001) >#                (see "available_diagnostics.log" file for the full list of diags)
(PID.TID 0000.0001) >#  missing_value(n) : missing value for real-type fields in output file "n"
(PID.TID 0000.0001) >#  fileFlags(n)     : specific code (8c string) for output file "n"
(PID.TID 0000.0001) >#--------------------
(PID.TID 0000.0001) ># This example dumps EXF diagnostics as snapshot after 10 time-steps
(PID.TID 0000.0001) ># Note: EXF air-sea fluxes over Sea-Ice are wrong
(PID.TID 0000.0001) > &DIAGNOSTICS_LIST
(PID.TID 0000.0001) >   dumpAtLast  = .TRUE.,
(PID.TID 0000.0001) >#--
(PID.TID 0000.0001) >  fields(1:11,1) = 'EXFtaux ','EXFtauy ','EXFqnet ','EXFempmr',
(PID.TID 0000.0001) >                   'EXFhl   ','EXFhs   ','EXFswnet','EXFlwnet',
(PID.TID 0000.0001) >                   'EXFuwind','EXFvwind','EXFatemp',
(PID.TID 0000.0001) >#  fileName(1) = 'exfDiag',
(PID.TID 0000.0001) >  frequency(1) = 86400.,
(PID.TID 0000.0001) >
(PID.TID 0000.0001) >  fields(1:4,2)  = 'SIuice  ','SIvice  ','SIheff  ',
(PID.TID 0000.0001) >                   'SIarea  ',
(PID.TID 0000.0001) >#  fileName(2) = 'iceDiag',
(PID.TID 0000.0001) >  frequency(2) =  86400.,
(PID.TID 0000.0001) >  missing_value(2) = -999.,
(PID.TID 0000.0001) >
(PID.TID 0000.0001) >  fields(1:13,3)  = 'SIuice  ','SIvice  ','SIheff  ',
(PID.TID 0000.0001) >                   'SIarea  ','SIshear ','SIcohes ',
(PID.TID 0000.0001) >       	           'SIsig1  ','SIsig2  ','SIdamage',
(PID.TID 0000.0001) >		   'SItaux  ','SItauy  ',
(PID.TID 0000.0001) >		   'EXFuwind','EXFvwind',
(PID.TID 0000.0001) >   fileName(3) = 'snapshot',
(PID.TID 0000.0001) >  frequency(3) = 1.,
(PID.TID 0000.0001) ># frequency(3) = -1800.,
(PID.TID 0000.0001) ># timePhase(3) =  1800.,
(PID.TID 0000.0001) >  missing_value(3) = -999.,
(PID.TID 0000.0001) > /
(PID.TID 0000.0001) >
(PID.TID 0000.0001) >#--------------------
(PID.TID 0000.0001) ># Parameter for Diagnostics of per level statistics:
(PID.TID 0000.0001) >#--------------------
(PID.TID 0000.0001) >#  diagSt_mnc (logical): write stat-diags to NetCDF files (default=diag_mnc)
(PID.TID 0000.0001) >#  diagSt_regMaskFile : file containing the region-mask to read-in
(PID.TID 0000.0001) >#  nSetRegMskFile   : number of region-mask sets within the region-mask file
(PID.TID 0000.0001) >#  set_regMask(i)   : region-mask set-index that identifies the region "i"
(PID.TID 0000.0001) >#  val_regMask(i)   : region "i" identifier value in the region mask
(PID.TID 0000.0001) >#--for each output-stream:
(PID.TID 0000.0001) >#  stat_fName(n) : prefix of the output file name (max 80c long) for outp.stream n
(PID.TID 0000.0001) >#  stat_freq(n):< 0 : write snap-shot output every |stat_freq| seconds
(PID.TID 0000.0001) >#               > 0 : write time-average output every stat_freq seconds
(PID.TID 0000.0001) >#  stat_phase(n)    : write at time = stat_phase + multiple of |stat_freq|
(PID.TID 0000.0001) >#  stat_region(:,n) : list of "regions" (default: 1 region only=global)
(PID.TID 0000.0001) >#  stat_fields(:,n) : list of selected diagnostics fields (8.c) in outp.stream n
(PID.TID 0000.0001) >#                (see "available_diagnostics.log" file for the full list of diags)
(PID.TID 0000.0001) >#--------------------
(PID.TID 0000.0001) > &DIAG_STATIS_PARMS
(PID.TID 0000.0001) > stat_fields(1:5,1)  = 'SIarea  ','SIheff  ','SIhsnow ',
(PID.TID 0000.0001) >                       'SIuice  ','SIvice  ',
(PID.TID 0000.0001) ># stat_fName(1) = 'iceStDiag',
(PID.TID 0000.0001) >   stat_freq(1) = 86400.,
(PID.TID 0000.0001) ># stat_phase(1) = 1800.,
(PID.TID 0000.0001) > /
(PID.TID 0000.0001) 
(PID.TID 0000.0001) S/R DIAGNOSTICS_READPARMS, read namelist "diagnostics_list": start
(PID.TID 0000.0001) S/R DIAGNOSTICS_READPARMS, read namelist "diagnostics_list": OK
(PID.TID 0000.0001) S/R DIAGNOSTICS_READPARMS, read namelist "DIAG_STATIS_PARMS": start
(PID.TID 0000.0001) S/R DIAGNOSTICS_READPARMS, read namelist "DIAG_STATIS_PARMS": OK
(PID.TID 0000.0001)  DIAGNOSTICS_READPARMS: global parameter summary:
(PID.TID 0000.0001)  dumpAtLast = /* always write time-ave diags at the end */
(PID.TID 0000.0001)                   T
(PID.TID 0000.0001)     ;
(PID.TID 0000.0001)  diag_mnc =   /* write NetCDF output files */
(PID.TID 0000.0001)                   F
(PID.TID 0000.0001)     ;
(PID.TID 0000.0001)  useMissingValue = /* put MissingValue where mask = 0 */
(PID.TID 0000.0001)                   F
(PID.TID 0000.0001)     ;
(PID.TID 0000.0001)  diagCG_maxIters = /* max number of iters in diag_cg2d */
(PID.TID 0000.0001)                     500
(PID.TID 0000.0001)     ;
(PID.TID 0000.0001)  diagCG_resTarget = /* residual target for diag_cg2d */
(PID.TID 0000.0001)                 1.000000000000000E-12
(PID.TID 0000.0001)     ;
(PID.TID 0000.0001)  diagCG_pcOffDFac = /* preconditioner off-diagonal factor */
(PID.TID 0000.0001)                 9.611687812379854E-01
(PID.TID 0000.0001)     ;
(PID.TID 0000.0001) -----------------------------------------------------
(PID.TID 0000.0001)  DIAGNOSTICS_READPARMS: active diagnostics summary:
(PID.TID 0000.0001) -----------------------------------------------------
(PID.TID 0000.0001) Creating Output Stream: snapshot
(PID.TID 0000.0001) Output Frequency:          1.000000 ; Phase:           0.000000
(PID.TID 0000.0001)  Averaging Freq.:          1.000000 , Phase:           0.000000 , Cycle:   1
(PID.TID 0000.0001)  missing value: -9.990000000000E+02
(PID.TID 0000.0001)  Levels:    will be set later
(PID.TID 0000.0001)  Fields:    SIuice   SIvice   SIheff   SIarea   SIshear  SIcohes  SIsig1   SIsig2   SIdamage SItaux
(PID.TID 0000.0001)  Fields:    SItauy   EXFuwind EXFvwind
(PID.TID 0000.0001) -----------------------------------------------------
(PID.TID 0000.0001)  DIAGNOSTICS_READPARMS: statistics diags. summary:
(PID.TID 0000.0001) -----------------------------------------------------
(PID.TID 0000.0001) 
(PID.TID 0000.0001) SET_PARMS: done
(PID.TID 0000.0001) Enter INI_VERTICAL_GRID: setInterFDr=    T ; setCenterDr=    F
(PID.TID 0000.0001) %MON XC_max                       =   5.1600000000000E+05
(PID.TID 0000.0001) %MON XC_min                       =   4.0000000000000E+03
(PID.TID 0000.0001) %MON XC_mean                      =   2.6000000000000E+05
(PID.TID 0000.0001) %MON XC_sd                        =   1.5009330431435E+05
(PID.TID 0000.0001) %MON XG_max                       =   5.1200000000000E+05
(PID.TID 0000.0001) %MON XG_min                       =   0.0000000000000E+00
(PID.TID 0000.0001) %MON XG_mean                      =   2.5600000000000E+05
(PID.TID 0000.0001) %MON XG_sd                        =   1.5009330431435E+05
(PID.TID 0000.0001) %MON DXC_max                      =   8.0000000000000E+03
(PID.TID 0000.0001) %MON DXC_min                      =   8.0000000000000E+03
(PID.TID 0000.0001) %MON DXC_mean                     =   8.0000000000000E+03
(PID.TID 0000.0001) %MON DXC_sd                       =   0.0000000000000E+00
(PID.TID 0000.0001) %MON DXF_max                      =   8.0000000000000E+03
(PID.TID 0000.0001) %MON DXF_min                      =   8.0000000000000E+03
(PID.TID 0000.0001) %MON DXF_mean                     =   8.0000000000000E+03
(PID.TID 0000.0001) %MON DXF_sd                       =   0.0000000000000E+00
(PID.TID 0000.0001) %MON DXG_max                      =   8.0000000000000E+03
(PID.TID 0000.0001) %MON DXG_min                      =   8.0000000000000E+03
(PID.TID 0000.0001) %MON DXG_mean                     =   8.0000000000000E+03
(PID.TID 0000.0001) %MON DXG_sd                       =   0.0000000000000E+00
(PID.TID 0000.0001) %MON DXV_max                      =   8.0000000000000E+03
(PID.TID 0000.0001) %MON DXV_min                      =   8.0000000000000E+03
(PID.TID 0000.0001) %MON DXV_mean                     =   8.0000000000000E+03
(PID.TID 0000.0001) %MON DXV_sd                       =   0.0000000000000E+00
(PID.TID 0000.0001) %MON YC_max                       =   5.1600000000000E+05
(PID.TID 0000.0001) %MON YC_min                       =   4.0000000000000E+03
(PID.TID 0000.0001) %MON YC_mean                      =   2.6000000000000E+05
(PID.TID 0000.0001) %MON YC_sd                        =   1.5009330431435E+05
(PID.TID 0000.0001) %MON YG_max                       =   5.1200000000000E+05
(PID.TID 0000.0001) %MON YG_min                       =   0.0000000000000E+00
(PID.TID 0000.0001) %MON YG_mean                      =   2.5600000000000E+05
(PID.TID 0000.0001) %MON YG_sd                        =   1.5009330431435E+05
(PID.TID 0000.0001) %MON DYC_max                      =   8.0000000000000E+03
(PID.TID 0000.0001) %MON DYC_min                      =   8.0000000000000E+03
(PID.TID 0000.0001) %MON DYC_mean                     =   8.0000000000000E+03
(PID.TID 0000.0001) %MON DYC_sd                       =   0.0000000000000E+00
(PID.TID 0000.0001) %MON DYF_max                      =   8.0000000000000E+03
(PID.TID 0000.0001) %MON DYF_min                      =   8.0000000000000E+03
(PID.TID 0000.0001) %MON DYF_mean                     =   8.0000000000000E+03
(PID.TID 0000.0001) %MON DYF_sd                       =   0.0000000000000E+00
(PID.TID 0000.0001) %MON DYG_max                      =   8.0000000000000E+03
(PID.TID 0000.0001) %MON DYG_min                      =   8.0000000000000E+03
(PID.TID 0000.0001) %MON DYG_mean                     =   8.0000000000000E+03
(PID.TID 0000.0001) %MON DYG_sd                       =   0.0000000000000E+00
(PID.TID 0000.0001) %MON DYU_max                      =   8.0000000000000E+03
(PID.TID 0000.0001) %MON DYU_min                      =   8.0000000000000E+03
(PID.TID 0000.0001) %MON DYU_mean                     =   8.0000000000000E+03
(PID.TID 0000.0001) %MON DYU_sd                       =   0.0000000000000E+00
(PID.TID 0000.0001) %MON RA_max                       =   6.4000000000000E+07
(PID.TID 0000.0001) %MON RA_min                       =   6.4000000000000E+07
(PID.TID 0000.0001) %MON RA_mean                      =   6.4000000000000E+07
(PID.TID 0000.0001) %MON RA_sd                        =   0.0000000000000E+00
(PID.TID 0000.0001) %MON RAW_max                      =   6.4000000000000E+07
(PID.TID 0000.0001) %MON RAW_min                      =   6.4000000000000E+07
(PID.TID 0000.0001) %MON RAW_mean                     =   6.4000000000000E+07
(PID.TID 0000.0001) %MON RAW_sd                       =   0.0000000000000E+00
(PID.TID 0000.0001) %MON RAS_max                      =   6.4000000000000E+07
(PID.TID 0000.0001) %MON RAS_min                      =   6.4000000000000E+07
(PID.TID 0000.0001) %MON RAS_mean                     =   6.4000000000000E+07
(PID.TID 0000.0001) %MON RAS_sd                       =   0.0000000000000E+00
(PID.TID 0000.0001) %MON RAZ_max                      =   6.4000000000000E+07
(PID.TID 0000.0001) %MON RAZ_min                      =   6.4000000000000E+07
(PID.TID 0000.0001) %MON RAZ_mean                     =   6.4000000000000E+07
(PID.TID 0000.0001) %MON RAZ_sd                       =   0.0000000000000E+00
(PID.TID 0000.0001) %MON AngleCS_max                  =   1.0000000000000E+00
(PID.TID 0000.0001) %MON AngleCS_min                  =   1.0000000000000E+00
(PID.TID 0000.0001) %MON AngleCS_mean                 =   1.0000000000000E+00
(PID.TID 0000.0001) %MON AngleCS_sd                   =   0.0000000000000E+00
(PID.TID 0000.0001) %MON AngleSN_max                  =   0.0000000000000E+00
(PID.TID 0000.0001) %MON AngleSN_min                  =   0.0000000000000E+00
(PID.TID 0000.0001) %MON AngleSN_mean                 =   0.0000000000000E+00
(PID.TID 0000.0001) %MON AngleSN_sd                   =   0.0000000000000E+00
(PID.TID 0000.0001)  MDS_READ_FIELD: opening global file: bathy_3c_8000.bin
(PID.TID 0000.0001) // =======================================================
(PID.TID 0000.0001) // Field Model R_low (ini_masks_etc)
(PID.TID 0000.0001) // CMIN =         -1.000000000000000E+01
(PID.TID 0000.0001) // CMAX =         -1.000000000000000E+01
(PID.TID 0000.0001) // CINT =          0.000000000000000E+00
(PID.TID 0000.0001) // SYMBOLS (CMIN->CMAX): -abcdefghijklmnopqrstuvwxyz+
(PID.TID 0000.0001) //                  0.0: .
(PID.TID 0000.0001) // RANGE I (Lo:Hi:Step):(    -3:    69:     1)
(PID.TID 0000.0001) // RANGE J (Lo:Hi:Step):(    69:    -3:    -1)
(PID.TID 0000.0001) // RANGE K (Lo:Hi:Step):(   1:   1:   1)
(PID.TID 0000.0001) // =======================================================
(PID.TID 0000.0001) // =======================================================
(PID.TID 0000.0001) // END OF FIELD                                          =
(PID.TID 0000.0001) // =======================================================
(PID.TID 0000.0001) 
(PID.TID 0000.0001) // =======================================================
(PID.TID 0000.0001) // Field Model Ro_surf (ini_masks_etc)
(PID.TID 0000.0001) // CMIN =          1.000000000000000E+32
(PID.TID 0000.0001) // CMAX =         -1.000000000000000E+32
(PID.TID 0000.0001) // CINT =          0.000000000000000E+00
(PID.TID 0000.0001) // SYMBOLS (CMIN->CMAX): -abcdefghijklmnopqrstuvwxyz+
(PID.TID 0000.0001) //                  0.0: .
(PID.TID 0000.0001) // RANGE I (Lo:Hi:Step):(    -3:    69:     1)
(PID.TID 0000.0001) // RANGE J (Lo:Hi:Step):(    69:    -3:    -1)
(PID.TID 0000.0001) // RANGE K (Lo:Hi:Step):(   1:   1:   1)
(PID.TID 0000.0001) // =======================================================
(PID.TID 0000.0001) // =======================================================
(PID.TID 0000.0001) // END OF FIELD                                          =
(PID.TID 0000.0001) // =======================================================
(PID.TID 0000.0001) 
(PID.TID 0000.0001) // =======================================================
(PID.TID 0000.0001) // Field hFacC at iteration          0
(PID.TID 0000.0001) // CMIN =          1.000000000000000E+00
(PID.TID 0000.0001) // CMAX =          1.000000000000000E+00
(PID.TID 0000.0001) // CINT =          0.000000000000000E+00
(PID.TID 0000.0001) // SYMBOLS (CMIN->CMAX): -abcdefghijklmnopqrstuvwxyz+
(PID.TID 0000.0001) //                  0.0: .
(PID.TID 0000.0001) // RANGE I (Lo:Hi:Step):(    -3:    69:     1)
(PID.TID 0000.0001) // RANGE J (Lo:Hi:Step):(    69:    -3:    -1)
(PID.TID 0000.0001) // RANGE K (Lo:Hi:Step):(   1:   1:   1)
(PID.TID 0000.0001) // =======================================================
(PID.TID 0000.0001) // =======================================================
(PID.TID 0000.0001) // END OF FIELD                                          =
(PID.TID 0000.0001) // =======================================================
(PID.TID 0000.0001) 
(PID.TID 0000.0001) // =======================================================
(PID.TID 0000.0001) // Field hFacW at iteration          0
(PID.TID 0000.0001) // CMIN =          1.000000000000000E+00
(PID.TID 0000.0001) // CMAX =          1.000000000000000E+00
(PID.TID 0000.0001) // CINT =          0.000000000000000E+00
(PID.TID 0000.0001) // SYMBOLS (CMIN->CMAX): -abcdefghijklmnopqrstuvwxyz+
(PID.TID 0000.0001) //                  0.0: .
(PID.TID 0000.0001) // RANGE I (Lo:Hi:Step):(    -3:    69:     1)
(PID.TID 0000.0001) // RANGE J (Lo:Hi:Step):(    69:    -3:    -1)
(PID.TID 0000.0001) // RANGE K (Lo:Hi:Step):(   1:   1:   1)
(PID.TID 0000.0001) // =======================================================
(PID.TID 0000.0001) // =======================================================
(PID.TID 0000.0001) // END OF FIELD                                          =
(PID.TID 0000.0001) // =======================================================
(PID.TID 0000.0001) 
(PID.TID 0000.0001) // =======================================================
(PID.TID 0000.0001) // Field hFacS at iteration          0
(PID.TID 0000.0001) // CMIN =          1.000000000000000E+00
(PID.TID 0000.0001) // CMAX =          1.000000000000000E+00
(PID.TID 0000.0001) // CINT =          0.000000000000000E+00
(PID.TID 0000.0001) // SYMBOLS (CMIN->CMAX): -abcdefghijklmnopqrstuvwxyz+
(PID.TID 0000.0001) //                  0.0: .
(PID.TID 0000.0001) // RANGE I (Lo:Hi:Step):(    -3:    69:     1)
(PID.TID 0000.0001) // RANGE J (Lo:Hi:Step):(    69:    -3:    -1)
(PID.TID 0000.0001) // RANGE K (Lo:Hi:Step):(   1:   1:   1)
(PID.TID 0000.0001) // =======================================================
(PID.TID 0000.0001) // =======================================================
(PID.TID 0000.0001) // END OF FIELD                                          =
(PID.TID 0000.0001) // =======================================================
(PID.TID 0000.0001) 
(PID.TID 0000.0001) GAD_INIT_FIXED: GAD_OlMinSize=  0  0  1
(PID.TID 0000.0001) 
(PID.TID 0000.0001) // ===================================
(PID.TID 0000.0001) // GAD parameters :
(PID.TID 0000.0001) // ===================================
(PID.TID 0000.0001) tempAdvScheme =   /* Temp. Horiz.Advection scheme selector */
(PID.TID 0000.0001)                       2
(PID.TID 0000.0001)     ;
(PID.TID 0000.0001) tempVertAdvScheme =   /* Temp. Vert. Advection scheme selector */
(PID.TID 0000.0001)                       2
(PID.TID 0000.0001)     ;
(PID.TID 0000.0001) tempMultiDimAdvec =   /* use Muti-Dim Advec method for Temp */
(PID.TID 0000.0001)                   F
(PID.TID 0000.0001)     ;
(PID.TID 0000.0001) tempSOM_Advection = /* use 2nd Order Moment Advection for Temp */
(PID.TID 0000.0001)                   F
(PID.TID 0000.0001)     ;
(PID.TID 0000.0001) AdamsBashforthGt = /* apply Adams-Bashforth extrapolation on Gt */
(PID.TID 0000.0001)                   F
(PID.TID 0000.0001)     ;
(PID.TID 0000.0001) AdamsBashforth_T = /* apply Adams-Bashforth extrapolation on Temp */
(PID.TID 0000.0001)                   F
(PID.TID 0000.0001)     ;
(PID.TID 0000.0001) saltAdvScheme =   /* Salt. Horiz.advection scheme selector */
(PID.TID 0000.0001)                       2
(PID.TID 0000.0001)     ;
(PID.TID 0000.0001) saltVertAdvScheme =   /* Salt. Vert. Advection scheme selector */
(PID.TID 0000.0001)                       2
(PID.TID 0000.0001)     ;
(PID.TID 0000.0001) saltMultiDimAdvec =   /* use Muti-Dim Advec method for Salt */
(PID.TID 0000.0001)                   F
(PID.TID 0000.0001)     ;
(PID.TID 0000.0001) saltSOM_Advection = /* use 2nd Order Moment Advection for Salt */
(PID.TID 0000.0001)                   F
(PID.TID 0000.0001)     ;
(PID.TID 0000.0001) AdamsBashforthGs = /* apply Adams-Bashforth extrapolation on Gs */
(PID.TID 0000.0001)                   F
(PID.TID 0000.0001)     ;
(PID.TID 0000.0001) AdamsBashforth_S = /* apply Adams-Bashforth extrapolation on Salt */
(PID.TID 0000.0001)                   F
(PID.TID 0000.0001)     ;
(PID.TID 0000.0001) // ===================================
(PID.TID 0000.0001) 
(PID.TID 0000.0001) // =======================================================
(PID.TID 0000.0001) // External forcing (EXF) configuration >>> START <<<
(PID.TID 0000.0001) // =======================================================
(PID.TID 0000.0001) 
(PID.TID 0000.0001)  EXF general parameters:
(PID.TID 0000.0001) 
(PID.TID 0000.0001) exf_iprec = /* exf file precision */
(PID.TID 0000.0001)                      64
(PID.TID 0000.0001)     ;
(PID.TID 0000.0001) useExfYearlyFields = /* add extension _YEAR to input file names */
(PID.TID 0000.0001)                   F
(PID.TID 0000.0001)     ;
(PID.TID 0000.0001) twoDigitYear = /* use 2-digit year extension */
(PID.TID 0000.0001)                   F
(PID.TID 0000.0001)     ;
(PID.TID 0000.0001) useExfCheckRange = /* check for fields range */
(PID.TID 0000.0001)                   T
(PID.TID 0000.0001)     ;
(PID.TID 0000.0001) diags_opOceWeighted = /* weight flux diags by open-ocean fraction */
(PID.TID 0000.0001)                   T
(PID.TID 0000.0001)     ;
(PID.TID 0000.0001) exf_debugLev = /* select EXF-debug printing level */
(PID.TID 0000.0001)                       2
(PID.TID 0000.0001)     ;
(PID.TID 0000.0001) exf_monFreq  = /* EXF monitor frequency [ s ] */
(PID.TID 0000.0001)                 8.640000000000000E+07
(PID.TID 0000.0001)     ;
(PID.TID 0000.0001) exf_adjMonSelect = /* select group of exf AD-variables to monitor */
(PID.TID 0000.0001)                       1
(PID.TID 0000.0001)     ;
(PID.TID 0000.0001) repeatPeriod = /* period for cycling forcing dataset [ s ] */
(PID.TID 0000.0001)                 1.382400000000000E+06
(PID.TID 0000.0001)     ;
(PID.TID 0000.0001) climTempFreeze= /* Minimum climatological temperature [deg.C] */
(PID.TID 0000.0001)                -1.900000000000000E+00
(PID.TID 0000.0001)     ;
(PID.TID 0000.0001) windStressMax = /* Maximum absolute windstress [ Pa ] */
(PID.TID 0000.0001)                 2.000000000000000E+00
(PID.TID 0000.0001)     ;
(PID.TID 0000.0001) stressIsOnCgrid = /* set u,v_stress on Arakawa C-grid */
(PID.TID 0000.0001)                   F
(PID.TID 0000.0001)     ;
(PID.TID 0000.0001) rotateStressOnAgrid = /* rotate u,v_stress on Arakawa A-grid */
(PID.TID 0000.0001)                   F
(PID.TID 0000.0001)     ;
(PID.TID 0000.0001) cen2kel = /* conversion of deg. Centigrade to Kelvin [K] */
(PID.TID 0000.0001)                 2.731500000000000E+02
(PID.TID 0000.0001)     ;
(PID.TID 0000.0001) gravity_mks= /* gravitational acceleration [m/s^2] */
(PID.TID 0000.0001)                 9.810000000000000E+00
(PID.TID 0000.0001)     ;
(PID.TID 0000.0001) atmrho =  /* mean atmospheric density [kg/m^3] */
(PID.TID 0000.0001)                 1.300000000000000E+00
(PID.TID 0000.0001)     ;
(PID.TID 0000.0001) atmcp =  /* mean atmospheric specific heat [J/kg/K] */
(PID.TID 0000.0001)                 1.005000000000000E+03
(PID.TID 0000.0001)     ;
(PID.TID 0000.0001) flamb =  /* latent heat of evaporation [J/kg] */
(PID.TID 0000.0001)                 2.500000000000000E+06
(PID.TID 0000.0001)     ;
(PID.TID 0000.0001) flami =  /* latent heat of pure-ice melting [J/kg] */
(PID.TID 0000.0001)                 3.340000000000000E+05
(PID.TID 0000.0001)     ;
(PID.TID 0000.0001) cvapor_fac = /* const. for Saturation calculation [?] */
(PID.TID 0000.0001)                 6.403800000000000E+05
(PID.TID 0000.0001)     ;
(PID.TID 0000.0001) cvapor_exp = /* const. for Saturation calculation [?] */
(PID.TID 0000.0001)                 5.107400000000000E+03
(PID.TID 0000.0001)     ;
(PID.TID 0000.0001) cvapor_fac_ice= /* const. for Saturation calculation [?] */
(PID.TID 0000.0001)                 1.163780000000000E+07
(PID.TID 0000.0001)     ;
(PID.TID 0000.0001) cvapor_exp_ice= /* const. for Saturation calculation [?] */
(PID.TID 0000.0001)                 5.897800000000000E+03
(PID.TID 0000.0001)     ;
(PID.TID 0000.0001) humid_fac = /* humidity coef. in virtual temp. [(kg/kg)^-1] */
(PID.TID 0000.0001)                 6.060000000000000E-01
(PID.TID 0000.0001)     ;
(PID.TID 0000.0001) gamma_blk = /* adiabatic lapse rate [?] */
(PID.TID 0000.0001)                 1.000000000000000E-02
(PID.TID 0000.0001)     ;
(PID.TID 0000.0001) saltsat = /* reduction of Qsat over salty water [-] */
(PID.TID 0000.0001)                 9.800000000000000E-01
(PID.TID 0000.0001)     ;
(PID.TID 0000.0001) noNegativeEvap = /* prevent negative Evaporation */
(PID.TID 0000.0001)                   F
(PID.TID 0000.0001)     ;
(PID.TID 0000.0001) sstExtrapol = /* extrapolation coeff from lev. 1 & 2 to surf [-] */
(PID.TID 0000.0001)                 0.000000000000000E+00
(PID.TID 0000.0001)     ;
(PID.TID 0000.0001) cDrag_1 = /* coef used in drag calculation [?] */
(PID.TID 0000.0001)                 2.700000000000000E-03
(PID.TID 0000.0001)     ;
(PID.TID 0000.0001) cDrag_2 = /* coef used in drag calculation [?] */
(PID.TID 0000.0001)                 1.420000000000000E-04
(PID.TID 0000.0001)     ;
(PID.TID 0000.0001) cDrag_3 = /* coef used in drag calculation [?] */
(PID.TID 0000.0001)                 7.640000000000000E-05
(PID.TID 0000.0001)     ;
(PID.TID 0000.0001) cStanton_1 = /* coef used in Stanton number calculation [?] */
(PID.TID 0000.0001)                 3.270000000000000E-02
(PID.TID 0000.0001)     ;
(PID.TID 0000.0001) cStanton_2 = /* coef used in Stanton number calculation [?] */
(PID.TID 0000.0001)                 1.800000000000000E-02
(PID.TID 0000.0001)     ;
(PID.TID 0000.0001) cDalton = /* coef used in Dalton number calculation [?] */
(PID.TID 0000.0001)                 3.460000000000000E-02
(PID.TID 0000.0001)     ;
(PID.TID 0000.0001) exf_scal_BulkCdn= /* Drag coefficient scaling factor [-] */
(PID.TID 0000.0001)                 1.000000000000000E+00
(PID.TID 0000.0001)     ;
(PID.TID 0000.0001) zolmin = /* minimum stability parameter [?] */
(PID.TID 0000.0001)                -1.000000000000000E+02
(PID.TID 0000.0001)     ;
(PID.TID 0000.0001) psim_fac = /* coef used in turbulent fluxes calculation [-] */
(PID.TID 0000.0001)                 5.000000000000000E+00
(PID.TID 0000.0001)     ;
(PID.TID 0000.0001) zref =  /* reference height [ m ] */
(PID.TID 0000.0001)                 1.000000000000000E+01
(PID.TID 0000.0001)     ;
(PID.TID 0000.0001) hu =  /* height of mean wind [ m ] */
(PID.TID 0000.0001)                 1.000000000000000E+01
(PID.TID 0000.0001)     ;
(PID.TID 0000.0001) ht =  /* height of mean temperature [ m ] */
(PID.TID 0000.0001)                 2.000000000000000E+00
(PID.TID 0000.0001)     ;
(PID.TID 0000.0001) hq =  /* height of mean spec.humidity [ m ] */
(PID.TID 0000.0001)                 2.000000000000000E+00
(PID.TID 0000.0001)     ;
(PID.TID 0000.0001) uMin = /* minimum wind speed [m/s] */
(PID.TID 0000.0001)                 5.000000000000000E-01
(PID.TID 0000.0001)     ;
(PID.TID 0000.0001) useStabilityFct_overIce= /* transfert Coeffs over sea-ice depend on stability */
(PID.TID 0000.0001)                   F
(PID.TID 0000.0001)     ;
(PID.TID 0000.0001) exf_iceCd = /* drag coefficient over sea-ice (fixed) [-] */
(PID.TID 0000.0001)                 1.630000000000000E-03
(PID.TID 0000.0001)     ;
(PID.TID 0000.0001) exf_iceCe = /* transfert coeff. over sea-ice, for Evap (fixed) [-] */
(PID.TID 0000.0001)                 1.630000000000000E-03
(PID.TID 0000.0001)     ;
(PID.TID 0000.0001) exf_iceCh = /* transfert coeff. over sea-ice, Sens.Heat.(fixed)[-] */
(PID.TID 0000.0001)                 1.630000000000000E-03
(PID.TID 0000.0001)     ;
(PID.TID 0000.0001) exf_albedo =  /* Sea-water albedo [-] */
(PID.TID 0000.0001)                 1.000000000000000E-01
(PID.TID 0000.0001)     ;
(PID.TID 0000.0001) useExfZenAlbedo = /* Sea-water albedo varies with zenith angle */
(PID.TID 0000.0001)                   F
(PID.TID 0000.0001)     ;
(PID.TID 0000.0001) select_ZenAlbedo = /* Sea-water albedo computation method */
(PID.TID 0000.0001)                       0
(PID.TID 0000.0001)     ;
(PID.TID 0000.0001) useExfZenIncoming = /* compute incoming solar radiation */
(PID.TID 0000.0001)                   F
(PID.TID 0000.0001)     ;
(PID.TID 0000.0001) ocean_emissivity = /* longwave ocean-surface emissivity [-] */
(PID.TID 0000.0001)                 9.700176366843034E-01
(PID.TID 0000.0001)     ;
(PID.TID 0000.0001) ice_emissivity = /* longwave seaice emissivity [-] */
(PID.TID 0000.0001)                 9.500000000000000E-01
(PID.TID 0000.0001)     ;
(PID.TID 0000.0001) snow_emissivity = /* longwave snow  emissivity [-] */
(PID.TID 0000.0001)                 9.500000000000000E-01
(PID.TID 0000.0001)     ;
(PID.TID 0000.0001) 
(PID.TID 0000.0001)  EXF main CPP flags:
(PID.TID 0000.0001) 
(PID.TID 0000.0001) // USE_EXF_INTERPOLATION:          NOT defined
(PID.TID 0000.0001) // ALLOW_ATM_TEMP:                     defined
(PID.TID 0000.0001) // ALLOW_ATM_WIND (useAtmWind):        defined
(PID.TID 0000.0001) // ALLOW_DOWNWARD_RADIATION:           defined
(PID.TID 0000.0001) // ALLOW_BULKFORMULAE:                 defined
(PID.TID 0000.0001) 
(PID.TID 0000.0001)    Zonal wind forcing starts at                          0.
(PID.TID 0000.0001)    Zonal wind forcing period is                      10800.
(PID.TID 0000.0001)    Zonal wind forcing repeat-cycle is              1382400.
(PID.TID 0000.0001)    Zonal wind forcing is read from file:
(PID.TID 0000.0001)    >> Uwindfield_shifted_8000.bin <<
(PID.TID 0000.0001) 
(PID.TID 0000.0001)    Meridional wind forcing starts at                     0.
(PID.TID 0000.0001)    Meridional wind forcing period is                 10800.
(PID.TID 0000.0001)    Meridional wind forcing repeat-cycle is         1382400.
(PID.TID 0000.0001)    Meridional wind forcing is read from file:
(PID.TID 0000.0001)    >> Vwindfield_shifted_8000.bin <<
(PID.TID 0000.0001) 
(PID.TID 0000.0001) // ALLOW_READ_TURBFLUXES:          NOT defined
(PID.TID 0000.0001) // EXF_READ_EVAP:                  NOT defined
(PID.TID 0000.0001) // ALLOW_RUNOFF:                       defined
(PID.TID 0000.0001) // ALLOW_RUNOFTEMP:                NOT defined
(PID.TID 0000.0001) // ALLOW_SALTFLX:                      defined
(PID.TID 0000.0001) 
(PID.TID 0000.0001) // =======================================================
(PID.TID 0000.0001) // External forcing (EXF) climatology configuration :
(PID.TID 0000.0001) // =======================================================
(PID.TID 0000.0001) 
(PID.TID 0000.0001) // ALLOW_CLIMSST_RELAXATION:           defined
(PID.TID 0000.0001)    climsst relaxation is NOT used
(PID.TID 0000.0001) 
(PID.TID 0000.0001) // ALLOW_CLIMSSS_RELAXATION:           defined
(PID.TID 0000.0001)    climsss relaxation is NOT used
(PID.TID 0000.0001) 
(PID.TID 0000.0001) // =======================================================
(PID.TID 0000.0001) // External forcing (EXF) configuration  >>> END <<<
(PID.TID 0000.0001) // =======================================================
(PID.TID 0000.0001) 
(PID.TID 0000.0001) // =======================================================
(PID.TID 0000.0001) // Seaice configuration (SEAICE_PARM01) >>> START <<<
(PID.TID 0000.0001) // =======================================================
(PID.TID 0000.0001) 
(PID.TID 0000.0001)    Seaice time stepping configuration   > START <
(PID.TID 0000.0001)    ----------------------------------------------
(PID.TID 0000.0001) SEAICE_deltaTtherm= /* thermodynamic timestep */
(PID.TID 0000.0001)                 2.500000000000000E+00
(PID.TID 0000.0001)     ;
(PID.TID 0000.0001) SEAICE_deltaTdyn  = /* dynamic timestep */
(PID.TID 0000.0001)                 2.500000000000000E+00
(PID.TID 0000.0001)     ;
(PID.TID 0000.0001) SEAICE_deltaTevp  = /* EVP timestep */
(PID.TID 0000.0001)                 1.234567000000000E+05
(PID.TID 0000.0001)     ;
(PID.TID 0000.0001) SEAICEuseBDF2  = /* use backw. differencing for mom. eq. */
(PID.TID 0000.0001)                   F
(PID.TID 0000.0001)     ;
(PID.TID 0000.0001) SEAICEupdateOceanStress= /* update Ocean surf. stress */
(PID.TID 0000.0001)                   T
(PID.TID 0000.0001)     ;
(PID.TID 0000.0001) SEAICErestoreUnderIce  = /* restore T and S under ice */
(PID.TID 0000.0001)                   F
(PID.TID 0000.0001)     ;
(PID.TID 0000.0001) 
(PID.TID 0000.0001)    Seaice dynamics configuration   > START <
(PID.TID 0000.0001)    ------------------------------------------
(PID.TID 0000.0001) SEAICEuseDYNAMICS = /* use dynamics */
(PID.TID 0000.0001)                   T
(PID.TID 0000.0001)     ;
(PID.TID 0000.0001) model grid type   = /* type of sea ice model grid */
(PID.TID 0000.0001)               'C-GRID'
(PID.TID 0000.0001)     ;
(PID.TID 0000.0001) SEAICEuseStrImpCpl = /* use strongly implicit coupling */
(PID.TID 0000.0001)                   F
(PID.TID 0000.0001)     ;
(PID.TID 0000.0001) SEAICEusePicardAsPrecon = /* Picard as preconditioner */
(PID.TID 0000.0001)                   F
(PID.TID 0000.0001)     ;
(PID.TID 0000.0001) SEAICEuseLSR      = /* use default Picard-LSR solver */
(PID.TID 0000.0001)                   F
(PID.TID 0000.0001)     ;
(PID.TID 0000.0001) SEAICEuseKrylov   = /* use Picard-Krylov solver */
(PID.TID 0000.0001)                   T
(PID.TID 0000.0001)     ;
(PID.TID 0000.0001) SEAICEuseEVP      = /* use EVP solver rather than LSR */
(PID.TID 0000.0001)                   F
(PID.TID 0000.0001)     ;
(PID.TID 0000.0001) SEAICEuseJFNK     = /* use JFNK solver */
(PID.TID 0000.0001)                   F
(PID.TID 0000.0001)     ;
(PID.TID 0000.0001) SEAICEuseMEB      = /* use MEB rheology */
(PID.TID 0000.0001)                   T
(PID.TID 0000.0001)     ;
(PID.TID 0000.0001) SEAICENoisyIceStrength= /* Noise on Sea ice strength*/
(PID.TID 0000.0001)                   F
(PID.TID 0000.0001)     ;
(PID.TID 0000.0001) OCEAN_drag        = /* air-ocean drag coefficient */
(PID.TID 0000.0001)                 1.000000000000000E-03
(PID.TID 0000.0001)     ;
(PID.TID 0000.0001) SEAICE_drag       = /* air-ice drag coefficient */
(PID.TID 0000.0001)                 1.200000000000000E-03
(PID.TID 0000.0001)     ;
(PID.TID 0000.0001) SEAICE_drag_south      = /* Southern Ocean SEAICE_drag */
(PID.TID 0000.0001)                 1.200000000000000E-03
(PID.TID 0000.0001)     ;
(PID.TID 0000.0001) SEAICE_waterDrag  = /* water-ice drag (no units) */
(PID.TID 0000.0001)                 5.500000000000000E-03
(PID.TID 0000.0001)     ;
(PID.TID 0000.0001) SEAICE_waterDrag_south = /* Southern Ocean waterDrag (no units) */
(PID.TID 0000.0001)                 5.500000000000000E-03
(PID.TID 0000.0001)     ;
(PID.TID 0000.0001) SEAICEdWatMin = /* minimum linear water-ice drag (in m/s) */
(PID.TID 0000.0001)                 2.500000000000000E-01
(PID.TID 0000.0001)     ;
(PID.TID 0000.0001) SEAICEuseTilt     = /* include surface tilt in dyna. */
(PID.TID 0000.0001)                   T
(PID.TID 0000.0001)     ;
(PID.TID 0000.0001) SEAICEuseTEM      = /* use truncated ellipse rheology */
(PID.TID 0000.0001)                   F
(PID.TID 0000.0001)     ;
(PID.TID 0000.0001) SEAICEmebNormCorr = /* use normal stress correction */
(PID.TID 0000.0001)                   F
(PID.TID 0000.0001)     ;
(PID.TID 0000.0001) SEAICE_strength   = /* undamaged elasticity modulus */
(PID.TID 0000.0001)                 5.000000000000000E+08
(PID.TID 0000.0001)     ;
(PID.TID 0000.0001) SEAICEpoissonRatio = /* sea ice Poisson ratio */
(PID.TID 0000.0001)                 3.000000119209290E-01
(PID.TID 0000.0001)     ;
(PID.TID 0000.0001) SEAICEviscosity = /* MEB apparent viscosity */
(PID.TID 0000.0001)                 5.000000000000000E+15
(PID.TID 0000.0001)     ;
(PID.TID 0000.0001) SEAICEcohesion = /* max. cohesion in pure shear */
(PID.TID 0000.0001)                 2.500000000000000E+02
(PID.TID 0000.0001)     ;
(PID.TID 0000.0001) SEAICEdamageParm = /* exponent alpha of damage*/
(PID.TID 0000.0001)                 4.000000000000000E+00
(PID.TID 0000.0001)     ;
(PID.TID 0000.0001) SEAICEdamageTime = /* damage time scale */
(PID.TID 0000.0001)                 8.000000000000000E+00
(PID.TID 0000.0001)     ;
(PID.TID 0000.0001) SEAICEdamageMin = /* stability parameter */
(PID.TID 0000.0001)                 1.000000000000000E-16
(PID.TID 0000.0001)     ;
(PID.TID 0000.0001) SEAICEtanThetaCorr = /* MEB tan(correction path angle) */
(PID.TID 0000.0001)                 1.234567000000000E+05
(PID.TID 0000.0001)     ;
(PID.TID 0000.0001) SEAICEintFrictCoeff = /* MEB interal friction coeff. */
(PID.TID 0000.0001)                 7.000000000000000E-01
(PID.TID 0000.0001)     ;
(PID.TID 0000.0001) SEAICEmohrCoulombSlope = /* slope of M.-C. criterion in stress invariants space */
(PID.TID 0000.0001)                 5.734623443633283E-01
(PID.TID 0000.0001)     ;
(PID.TID 0000.0001) SEAICEhealingTime = /* damage healing time scale */
(PID.TID 0000.0001)                 1.000000000000000E+05
(PID.TID 0000.0001)     ;
(PID.TID 0000.0001) SEAICE_cStar      = /* sea-ice strength parameter cStar */
(PID.TID 0000.0001)                 2.000000000000000E+01
(PID.TID 0000.0001)     ;
(PID.TID 0000.0001) SEAICEpressReplFac= /* press. replacement method factor */
(PID.TID 0000.0001)                 1.000000000000000E+00
(PID.TID 0000.0001)     ;
(PID.TID 0000.0001) SEAICE_tensilFac  = /* sea-ice tensile strength factor */
(PID.TID 0000.0001)                 0.000000000000000E+00
(PID.TID 0000.0001)     ;
(PID.TID 0000.0001) SEAICE_tensilDepth= /* crit. depth for tensile strength */
(PID.TID 0000.0001)                 0.000000000000000E+00
(PID.TID 0000.0001)     ;
(PID.TID 0000.0001) SEAICEpresH0   = /* sea-ice strength Heff threshold */
(PID.TID 0000.0001)                 1.000000000000000E+00
(PID.TID 0000.0001)     ;
(PID.TID 0000.0001) SEAICEpresPow0 = /* exponent for Heff<SEAICEpresH0 */
(PID.TID 0000.0001)                       1
(PID.TID 0000.0001)     ;
(PID.TID 0000.0001) SEAICEpresPow1 = /* exponent for Heff>SEAICEpresH0 */
(PID.TID 0000.0001)                       1
(PID.TID 0000.0001)     ;
(PID.TID 0000.0001) SEAICEetaZmethod = /* method computing eta at Z-point */
(PID.TID 0000.0001)                       3
(PID.TID 0000.0001)     ;
(PID.TID 0000.0001) SEAICE_zetaMaxFac = /* factor for upper viscosity bound */
(PID.TID 0000.0001)                 2.500000000000000E+08
(PID.TID 0000.0001)     ;
(PID.TID 0000.0001) SEAICE_zetaMin    = /* lower bound for viscosity */
(PID.TID 0000.0001)                 0.000000000000000E+00
(PID.TID 0000.0001)     ;
(PID.TID 0000.0001) SEAICE_eccen    = /* elliptical yield curve eccent */
(PID.TID 0000.0001)                 2.000000000000000E+00
(PID.TID 0000.0001)     ;
(PID.TID 0000.0001) SEAICEstressFactor    = /* wind stress scaling factor */
(PID.TID 0000.0001)                 1.000000000000000E+00
(PID.TID 0000.0001)     ;
(PID.TID 0000.0001) SEAICE_airTurnAngle    = /* air-ice turning angle */
(PID.TID 0000.0001)                 0.000000000000000E+00
(PID.TID 0000.0001)     ;
(PID.TID 0000.0001) SEAICE_waterTurnAngle  = /* ice-water turning angle */
(PID.TID 0000.0001)                 0.000000000000000E+00
(PID.TID 0000.0001)     ;
(PID.TID 0000.0001) SEAICEuseMetricTerms = /* use metric terms */
(PID.TID 0000.0001)                   T
(PID.TID 0000.0001)     ;
(PID.TID 0000.0001) SEAICE_no_slip    = /* no slip boundary conditions */
(PID.TID 0000.0001)                   T
(PID.TID 0000.0001)     ;
(PID.TID 0000.0001) SEAICE_2ndOrderBC = /* 2nd order no slip boundary conditions */
(PID.TID 0000.0001)                   F
(PID.TID 0000.0001)     ;
(PID.TID 0000.0001) SEAICE_clipVeloctities = /* impose max. vels. */
(PID.TID 0000.0001)                   F
(PID.TID 0000.0001)     ;
(PID.TID 0000.0001) useHB87stressCoupling  = /* altern. ice-ocean stress */
(PID.TID 0000.0001)                   F
(PID.TID 0000.0001)     ;
(PID.TID 0000.0001) SEAICEscaleSurfStress  = /* scale atm. and ocean-surface stress with AREA */
(PID.TID 0000.0001)                   T
(PID.TID 0000.0001)     ;
(PID.TID 0000.0001) SEAICE_maskRHS    = /* mask RHS of solver */
(PID.TID 0000.0001)                   F
(PID.TID 0000.0001)     ;
(PID.TID 0000.0001) SEAICEaddSnowMass = /* add snow mass to seaiceMassC/U/V */
(PID.TID 0000.0001)                   T
(PID.TID 0000.0001)     ;
(PID.TID 0000.0001) LSR_mixIniGuess = /* mix free-drift sol. into LSR initial Guess */
(PID.TID 0000.0001)                      -1
(PID.TID 0000.0001)     ;
(PID.TID 0000.0001) SEAICE_LSRrelaxU  = /* LSR solver: relaxation parameter */
(PID.TID 0000.0001)                 9.500000000000000E-01
(PID.TID 0000.0001)     ;
(PID.TID 0000.0001) SEAICE_LSRrelaxV  = /* LSR solver: relaxation parameter */
(PID.TID 0000.0001)                 9.500000000000000E-01
(PID.TID 0000.0001)     ;
(PID.TID 0000.0001) LSR_ERROR         = /* sets accuracy of LSR solver */
(PID.TID 0000.0001)                 1.000000000000000E-05
(PID.TID 0000.0001)     ;
(PID.TID 0000.0001) SOLV_NCHECK       = /* test interval for LSR solver */
(PID.TID 0000.0001)                       2
(PID.TID 0000.0001)     ;
(PID.TID 0000.0001) SEAICEuseMultiTileSolver = /* use full domain tri-diag solver */
(PID.TID 0000.0001)                   F
(PID.TID 0000.0001)     ;
(PID.TID 0000.0001) SEAICE_OLx = /* overlap for LSR/preconditioner */
(PID.TID 0000.0001)                       2
(PID.TID 0000.0001)     ;
(PID.TID 0000.0001) SEAICE_OLy = /* overlap for LSR/preconditioner */
(PID.TID 0000.0001)                       2
(PID.TID 0000.0001)     ;
(PID.TID 0000.0001) SEAICEnonLinIterMax = /* max. number of nonlinear solver steps */
(PID.TID 0000.0001)                     100
(PID.TID 0000.0001)     ;
(PID.TID 0000.0001) SEAICElinearIterMax = /* max. number of linear solver steps */
(PID.TID 0000.0001)                      50
(PID.TID 0000.0001)     ;
(PID.TID 0000.0001) SEAICEnonLinTol     = /* non-linear solver tolerance */
(PID.TID 0000.0001)                 1.000000000000000E-12
(PID.TID 0000.0001)     ;
(PID.TID 0000.0001) SEAICEpreconLinIter = /* number of linear preconditioner steps */
(PID.TID 0000.0001)                      10
(PID.TID 0000.0001)     ;
(PID.TID 0000.0001) SEAICEpreconNL_Iter = /* number of non-linear preconditioner steps */
(PID.TID 0000.0001)                       0
(PID.TID 0000.0001)     ;
(PID.TID 0000.0001) SEAICEuseIMEX  = /* IMEX scheme with JFNK-solver */
(PID.TID 0000.0001)                   T
(PID.TID 0000.0001)     ;
(PID.TID 0000.0001) 
(PID.TID 0000.0001)    Seaice advection diffusion config,   > START <
(PID.TID 0000.0001)    -----------------------------------------------
(PID.TID 0000.0001) SEAICEmomAdvection = /* advect sea ice momentum */
(PID.TID 0000.0001)                   F
(PID.TID 0000.0001)     ;
(PID.TID 0000.0001) SEAICEadvHeff = /* advect effective ice thickness */
(PID.TID 0000.0001)                   T
(PID.TID 0000.0001)     ;
(PID.TID 0000.0001) SEAICEadvArea = /* advect fractional ice area */
(PID.TID 0000.0001)                   T
(PID.TID 0000.0001)     ;
(PID.TID 0000.0001) SEAICEadvSnow = /* advect snow layer together with ice */
(PID.TID 0000.0001)                   T
(PID.TID 0000.0001)     ;
(PID.TID 0000.0001) SEAICEadvStress = /* advect stress tensor */
(PID.TID 0000.0001)                   T
(PID.TID 0000.0001)     ;
(PID.TID 0000.0001) SEAICEadvScheme   = /* advection scheme for ice */
(PID.TID 0000.0001)                      77
(PID.TID 0000.0001)     ;
(PID.TID 0000.0001) SEAICEadvSchArea   = /* advection scheme for area */
(PID.TID 0000.0001)                      77
(PID.TID 0000.0001)     ;
(PID.TID 0000.0001) SEAICEadvSchHeff   = /* advection scheme for thickness */
(PID.TID 0000.0001)                      77
(PID.TID 0000.0001)     ;
(PID.TID 0000.0001) SEAICEadvSchSnow   = /* advection scheme for snow */
(PID.TID 0000.0001)                      77
(PID.TID 0000.0001)     ;
(PID.TID 0000.0001) SEAICEdiffKhArea   = /* diffusivity (m^2/s) for area */
(PID.TID 0000.0001)                 0.000000000000000E+00
(PID.TID 0000.0001)     ;
(PID.TID 0000.0001) SEAICEdiffKhHeff   = /* diffusivity (m^2/s) for heff */
(PID.TID 0000.0001)                 0.000000000000000E+00
(PID.TID 0000.0001)     ;
(PID.TID 0000.0001) SEAICEdiffKhSnow   = /* diffusivity (m^2/s) for snow */
(PID.TID 0000.0001)                 0.000000000000000E+00
(PID.TID 0000.0001)     ;
(PID.TID 0000.0001) DIFF1             = /* parameter used in advect.F [m/s] */
(PID.TID 0000.0001)                 0.000000000000000E+00
(PID.TID 0000.0001)     ;
(PID.TID 0000.0001) 
(PID.TID 0000.0001)    Seaice thermodynamics configuration   > START <
(PID.TID 0000.0001)    -----------------------------------------------
(PID.TID 0000.0001) SEAICE_rhoIce     = /* density of sea ice (kg/m3) */
(PID.TID 0000.0001)                 9.000000000000000E+02
(PID.TID 0000.0001)     ;
(PID.TID 0000.0001) SEAICE_rhoSnow    = /* density of snow (kg/m3) */
(PID.TID 0000.0001)                 3.300000000000000E+02
(PID.TID 0000.0001)     ;
(PID.TID 0000.0001) SEAICE_rhoAir     = /* density of air (kg/m3) */
(PID.TID 0000.0001)                 1.300000000000000E+00
(PID.TID 0000.0001)     ;
(PID.TID 0000.0001) usePW79thermodynamics  = /* default 0-layer TD */
(PID.TID 0000.0001)                   F
(PID.TID 0000.0001)     ;
(PID.TID 0000.0001)    pkg/seaice thermodynamics is OFF
(PID.TID 0000.0001) 
(PID.TID 0000.0001)    Seaice initialization and IO config.,   > START <
(PID.TID 0000.0001)    -------------------------------------------------
(PID.TID 0000.0001) SEAICE_initialHEFF= /* initial sea-ice thickness */
(PID.TID 0000.0001)                 0.000000000000000E+00
(PID.TID 0000.0001)     ;
(PID.TID 0000.0001) AreaFile = /* Initial ice concentration File */
(PID.TID 0000.0001)               'const_1.0_8000.bin'
(PID.TID 0000.0001)     ;
(PID.TID 0000.0001) HeffFile = /* Initial effective ice thickness File */
(PID.TID 0000.0001)               'thickness_aniso_8000.bin'
(PID.TID 0000.0001)     ;
(PID.TID 0000.0001) NoisFile = /* Noise field File */
(PID.TID 0000.0001)               ''
(PID.TID 0000.0001)     ;
(PID.TID 0000.0001) CohesFile = /* Initial sea ice cohesion File */
(PID.TID 0000.0001)               ''
(PID.TID 0000.0001)     ;
(PID.TID 0000.0001) HsnowFile = /* Initial snow thickness File */
(PID.TID 0000.0001)               'const_00_8000.bin'
(PID.TID 0000.0001)     ;
(PID.TID 0000.0001) uIceFile = /* Initial U-ice velocity File */
(PID.TID 0000.0001)               ''
(PID.TID 0000.0001)     ;
(PID.TID 0000.0001) vIceFile = /* Initial V-ice velocity File */
(PID.TID 0000.0001)               ''
(PID.TID 0000.0001)     ;
(PID.TID 0000.0001) SEAICEwriteState  = /* write sea ice state to file */
(PID.TID 0000.0001)                   T
(PID.TID 0000.0001)     ;
(PID.TID 0000.0001) SEAICE_monFreq  = /* monitor frequency */
(PID.TID 0000.0001)                 1.000000000000000E+00
(PID.TID 0000.0001)     ;
(PID.TID 0000.0001) SEAICE_dumpFreq   = /* dump frequency */
(PID.TID 0000.0001)                 1.000000000000000E+00
(PID.TID 0000.0001)     ;
(PID.TID 0000.0001) SEAICE_taveFreq   = /* time-averaging frequency */
(PID.TID 0000.0001)                 0.000000000000000E+00
(PID.TID 0000.0001)     ;
(PID.TID 0000.0001) SEAICE_mon_stdio  = /* write monitor to std-outp */
(PID.TID 0000.0001)                   T
(PID.TID 0000.0001)     ;
(PID.TID 0000.0001) SEAICE_dump_mdsio = /* write snap-shot   using MDSIO */
(PID.TID 0000.0001)                   T
(PID.TID 0000.0001)     ;
(PID.TID 0000.0001) SEAICE_tave_mdsio = /* write TimeAverage using MDSIO */
(PID.TID 0000.0001)                   T
(PID.TID 0000.0001)     ;
(PID.TID 0000.0001) 
(PID.TID 0000.0001)    Seaice regularization numbers,   > START <
(PID.TID 0000.0001)    -----------------------------------------------
(PID.TID 0000.0001) SEAICE_deltaMin   = /* reduce singularities in Delta */
(PID.TID 0000.0001)                 2.000000000000000E-09
(PID.TID 0000.0001)     ;
(PID.TID 0000.0001) SEAICE_EPS        = /* small number */
(PID.TID 0000.0001)                 1.000000000000000E-10
(PID.TID 0000.0001)     ;
(PID.TID 0000.0001) SEAICE_EPS_SQ     = /* small number squared */
(PID.TID 0000.0001)                 1.000000000000000E-20
(PID.TID 0000.0001)     ;
(PID.TID 0000.0001) SEAICE_area_reg   = /* reduce derivative singularities */
(PID.TID 0000.0001)                 1.000000000000000E-05
(PID.TID 0000.0001)     ;
(PID.TID 0000.0001) SEAICE_hice_reg   = /* reduce derivative singularities */
(PID.TID 0000.0001)                 5.000000000000000E-02
(PID.TID 0000.0001)     ;
(PID.TID 0000.0001) SEAICE_area_floor = /* reduce derivative singularities */
(PID.TID 0000.0001)                 1.000000000000000E-05
(PID.TID 0000.0001)     ;
(PID.TID 0000.0001) 
(PID.TID 0000.0001) // =======================================================
(PID.TID 0000.0001) // Seaice configuration (SEAICE_PARM01) >>> END <<<
(PID.TID 0000.0001) // =======================================================
(PID.TID 0000.0001) 
(PID.TID 0000.0001) ------------------------------------------------------------
(PID.TID 0000.0001) DIAGNOSTICS_SET_LEVELS: done
(PID.TID 0000.0001)  Total Nb of available Diagnostics: ndiagt=   233
(PID.TID 0000.0001)  write list of available Diagnostics to file: available_diagnostics.log
(PID.TID 0000.0001) SETDIAG: Allocate  1 x  1 Levels for Diagnostic #   163 SIuice
(PID.TID 0000.0001) SETDIAG: Allocate  1 x  1 Levels for Diagnostic #   164 SIvice
(PID.TID 0000.0001) SETDIAG: Allocate  1 x  1 Levels for Diagnostic #   149 SIheff
(PID.TID 0000.0001) SETDIAG: Allocate  1 x  1 Levels for Diagnostic #   146 SIarea
(PID.TID 0000.0001) SETDIAG: Allocate  1 x  1 Levels for Diagnostic #   228 SIshear
(PID.TID 0000.0001) SETDIAG: Allocate  1 x  1 Levels for Diagnostic #   233 SIcohes
(PID.TID 0000.0001) SETDIAG: Allocate  1 x  1 Levels for Diagnostic #   221 SIsig1
(PID.TID 0000.0001) SETDIAG: Allocate  1 x  1 Levels for Diagnostic #   222 SIsig2
(PID.TID 0000.0001) SETDIAG: Allocate  1 x  1 Levels for Diagnostic #   231 SIdamage
(PID.TID 0000.0001) SETDIAG: Allocate  1 x  1 Levels for Diagnostic #   165 SItaux
(PID.TID 0000.0001) SETDIAG: Allocate  1 x  1 Levels for Diagnostic #   166 SItauy
(PID.TID 0000.0001) SETDIAG: Allocate  1 x  1 Levels for Diagnostic #   133 EXFuwind
(PID.TID 0000.0001) SETDIAG: Allocate  1 x  1 Levels for Diagnostic #   134 EXFvwind
(PID.TID 0000.0001)   space allocated for all diagnostics:      13 levels
(PID.TID 0000.0001)   set mate pointer for diag #   163  SIuice   , Parms: UU      M1 , mate:   164
(PID.TID 0000.0001)   set mate pointer for diag #   164  SIvice   , Parms: VV      M1 , mate:   163
(PID.TID 0000.0001)   set mate pointer for diag #   165  SItaux   , Parms: UU      U1 , mate:   166
(PID.TID 0000.0001)   set mate pointer for diag #   166  SItauy   , Parms: VV      U1 , mate:   165
(PID.TID 0000.0001) DIAGNOSTICS_SET_POINTERS: Set levels for Outp.Stream: snapshot
(PID.TID 0000.0001)  Levels:       1.
(PID.TID 0000.0001) DIAGNOSTICS_SET_POINTERS: done
(PID.TID 0000.0001) ------------------------------------------------------------
(PID.TID 0000.0001) DIAGSTATS_SET_REGIONS: define no region
(PID.TID 0000.0001) ------------------------------------------------------------
(PID.TID 0000.0001)   space allocated for all stats-diags:       0 levels
(PID.TID 0000.0001) DIAGSTATS_SET_POINTERS: done
(PID.TID 0000.0001) ------------------------------------------------------------
(PID.TID 0000.0001) %MON fCori_max                    =   1.5116000000000E-04
(PID.TID 0000.0001) %MON fCori_min                    =   1.4604000000000E-04
(PID.TID 0000.0001) %MON fCori_mean                   =   1.4860000000000E-04
(PID.TID 0000.0001) %MON fCori_sd                     =   1.5009330431435E-06
(PID.TID 0000.0001) %MON fCoriG_max                   =   1.5112000000000E-04
(PID.TID 0000.0001) %MON fCoriG_min                   =   1.4600000000000E-04
(PID.TID 0000.0001) %MON fCoriG_mean                  =   1.4856000000000E-04
(PID.TID 0000.0001) %MON fCoriG_sd                    =   1.5009330431435E-06
(PID.TID 0000.0001) %MON fCoriCos_max                 =   0.0000000000000E+00
(PID.TID 0000.0001) %MON fCoriCos_min                 =   0.0000000000000E+00
(PID.TID 0000.0001) %MON fCoriCos_mean                =   0.0000000000000E+00
(PID.TID 0000.0001) %MON fCoriCos_sd                  =   0.0000000000000E+00
(PID.TID 0000.0001) INI_CG2D: CG2D normalisation factor =  1.0000000000000001E-01
(PID.TID 0000.0001) 
(PID.TID 0000.0001) // =======================================================
(PID.TID 0000.0001) // Model configuration
(PID.TID 0000.0001) // =======================================================
(PID.TID 0000.0001) //
(PID.TID 0000.0001) // "Physical" paramters ( PARM01 in namelist )
(PID.TID 0000.0001) //
(PID.TID 0000.0001) buoyancyRelation = /* Type of relation to get Buoyancy */
(PID.TID 0000.0001)               'OCEANIC'
(PID.TID 0000.0001)     ;
(PID.TID 0000.0001) fluidIsAir   =  /* fluid major constituent is Air */
(PID.TID 0000.0001)                   F
(PID.TID 0000.0001)     ;
(PID.TID 0000.0001) fluidIsWater =  /* fluid major constituent is Water */
(PID.TID 0000.0001)                   T
(PID.TID 0000.0001)     ;
(PID.TID 0000.0001) usingPCoords =  /* use p (or p*) vertical coordinate */
(PID.TID 0000.0001)                   F
(PID.TID 0000.0001)     ;
(PID.TID 0000.0001) usingZCoords =  /* use z (or z*) vertical coordinate */
(PID.TID 0000.0001)                   T
(PID.TID 0000.0001)     ;
(PID.TID 0000.0001) tRef =   /* Reference temperature profile ( oC or K ) */
(PID.TID 0000.0001)                -1.620000000000000E+00       /* K =  1 */
(PID.TID 0000.0001)     ;
(PID.TID 0000.0001) sRef =   /* Reference salinity profile ( g/kg ) */
(PID.TID 0000.0001)                 3.000000000000000E+01       /* K =  1 */
(PID.TID 0000.0001)     ;
(PID.TID 0000.0001) useStrainTensionVisc= /* Use StrainTension Form of Viscous Operator */
(PID.TID 0000.0001)                   F
(PID.TID 0000.0001)     ;
(PID.TID 0000.0001) useVariableVisc = /* Use variable horizontal viscosity */
(PID.TID 0000.0001)                   F
(PID.TID 0000.0001)     ;
(PID.TID 0000.0001) useHarmonicVisc = /* Use harmonic horizontal viscosity */
(PID.TID 0000.0001)                   F
(PID.TID 0000.0001)     ;
(PID.TID 0000.0001) useBiharmonicVisc= /* Use biharmonic horiz.  viscosity */
(PID.TID 0000.0001)                   F
(PID.TID 0000.0001)     ;
(PID.TID 0000.0001) useSmag3D = /* Use isotropic 3-D Smagorinsky viscosity */
(PID.TID 0000.0001)                   F
(PID.TID 0000.0001)     ;
(PID.TID 0000.0001) viscAh  =   /* Lateral harmonic viscosity ( m^2/s ) */
(PID.TID 0000.0001)                 0.000000000000000E+00
(PID.TID 0000.0001)     ;
(PID.TID 0000.0001) viscA4  =   /* Lateral biharmonic viscosity ( m^4/s ) */
(PID.TID 0000.0001)                 0.000000000000000E+00
(PID.TID 0000.0001)     ;
(PID.TID 0000.0001) no_slip_sides =  /* Viscous BCs: No-slip sides */
(PID.TID 0000.0001)                   T
(PID.TID 0000.0001)     ;
(PID.TID 0000.0001) sideDragFactor = /* side-drag scaling factor (non-dim) */
(PID.TID 0000.0001)                 2.000000000000000E+00
(PID.TID 0000.0001)     ;
(PID.TID 0000.0001) viscArNr = /* vertical profile of vertical viscosity ( m^2/s )*/
(PID.TID 0000.0001)                 0.000000000000000E+00       /* K =  1 */
(PID.TID 0000.0001)     ;
(PID.TID 0000.0001) no_slip_bottom =  /* Viscous BCs: No-slip bottom */
(PID.TID 0000.0001)                   T
(PID.TID 0000.0001)     ;
(PID.TID 0000.0001) bottomVisc_pCell = /* Partial-cell in bottom Visc. BC */
(PID.TID 0000.0001)                   F
(PID.TID 0000.0001)     ;
(PID.TID 0000.0001) bottomDragLinear = /* linear bottom-drag coefficient ( m/s ) */
(PID.TID 0000.0001)                 0.000000000000000E+00
(PID.TID 0000.0001)     ;
(PID.TID 0000.0001) bottomDragQuadratic = /* quadratic bottom-drag coefficient (-) */
(PID.TID 0000.0001)                 0.000000000000000E+00
(PID.TID 0000.0001)     ;
(PID.TID 0000.0001) selectBotDragQuadr = /* select quadratic bottom drag options */
(PID.TID 0000.0001)                      -1
(PID.TID 0000.0001)     ;
(PID.TID 0000.0001) diffKhT =   /* Laplacian diffusion of heat laterally ( m^2/s ) */
(PID.TID 0000.0001)                 0.000000000000000E+00
(PID.TID 0000.0001)     ;
(PID.TID 0000.0001) diffK4T =   /* Biharmonic diffusion of heat laterally ( m^4/s ) */
(PID.TID 0000.0001)                 0.000000000000000E+00
(PID.TID 0000.0001)     ;
(PID.TID 0000.0001) diffKhS =   /* Laplacian diffusion of salt laterally ( m^2/s ) */
(PID.TID 0000.0001)                 0.000000000000000E+00
(PID.TID 0000.0001)     ;
(PID.TID 0000.0001) diffK4S =   /* Biharmonic diffusion of salt laterally ( m^4/s ) */
(PID.TID 0000.0001)                 0.000000000000000E+00
(PID.TID 0000.0001)     ;
(PID.TID 0000.0001) diffKrNrT = /* vertical profile of vertical diffusion of Temp ( m^2/s )*/
(PID.TID 0000.0001)                 0.000000000000000E+00       /* K =  1 */
(PID.TID 0000.0001)     ;
(PID.TID 0000.0001) diffKrNrS = /* vertical profile of vertical diffusion of Salt ( m^2/s )*/
(PID.TID 0000.0001)                 0.000000000000000E+00       /* K =  1 */
(PID.TID 0000.0001)     ;
(PID.TID 0000.0001) diffKrBL79surf = /* Surface diffusion for Bryan and Lewis 79 ( m^2/s ) */
(PID.TID 0000.0001)                 0.000000000000000E+00
(PID.TID 0000.0001)     ;
(PID.TID 0000.0001) diffKrBL79deep = /* Deep diffusion for Bryan and Lewis 1979 ( m^2/s ) */
(PID.TID 0000.0001)                 0.000000000000000E+00
(PID.TID 0000.0001)     ;
(PID.TID 0000.0001) diffKrBL79scl = /* Depth scale for Bryan and Lewis 1979 ( m ) */
(PID.TID 0000.0001)                 2.000000000000000E+02
(PID.TID 0000.0001)     ;
(PID.TID 0000.0001) diffKrBL79Ho = /* Turning depth for Bryan and Lewis 1979 ( m ) */
(PID.TID 0000.0001)                -2.000000000000000E+03
(PID.TID 0000.0001)     ;
(PID.TID 0000.0001) ivdc_kappa = /* Implicit Vertical Diffusivity for Convection ( m^2/s) */
(PID.TID 0000.0001)                 0.000000000000000E+00
(PID.TID 0000.0001)     ;
(PID.TID 0000.0001) hMixCriteria=  /* Criteria for mixed-layer diagnostic */
(PID.TID 0000.0001)                -8.000000000000000E-01
(PID.TID 0000.0001)     ;
(PID.TID 0000.0001) dRhoSmall =  /* Parameter for mixed-layer diagnostic */
(PID.TID 0000.0001)                 1.000000000000000E-06
(PID.TID 0000.0001)     ;
(PID.TID 0000.0001) hMixSmooth=  /* Smoothing parameter for mixed-layer diagnostic */
(PID.TID 0000.0001)                 0.000000000000000E+00
(PID.TID 0000.0001)     ;
(PID.TID 0000.0001) eosType =  /* Type of Equation of State */
(PID.TID 0000.0001)               'LINEAR'
(PID.TID 0000.0001)     ;
(PID.TID 0000.0001) tAlpha = /* Linear EOS thermal expansion coefficient ( 1/oC ) */
(PID.TID 0000.0001)                 2.000000000000000E-04
(PID.TID 0000.0001)     ;
(PID.TID 0000.0001) sBeta  = /* Linear EOS haline contraction coefficient ( 1/(g/kg) ) */
(PID.TID 0000.0001)                 7.400000000000000E-04
(PID.TID 0000.0001)     ;
(PID.TID 0000.0001) rhoNil    = /* Reference density for Linear EOS ( kg/m^3 ) */
(PID.TID 0000.0001)                 1.026000000000000E+03
(PID.TID 0000.0001)     ;
(PID.TID 0000.0001) selectP_inEOS_Zc = /* select pressure to use in EOS (0,1,2,3) */
(PID.TID 0000.0001)                       0
(PID.TID 0000.0001)     0= -g*rhoConst*z ; 1= pRef (from tRef,sRef); 2= Hyd P ; 3= Hyd+NH P
(PID.TID 0000.0001)     ;
(PID.TID 0000.0001) surf_pRef = /* Surface reference pressure ( Pa ) */
(PID.TID 0000.0001)                 1.013250000000000E+05
(PID.TID 0000.0001)     ;
(PID.TID 0000.0001) HeatCapacity_Cp =  /* Specific heat capacity ( J/kg/K ) */
(PID.TID 0000.0001)                 3.986000000000000E+03
(PID.TID 0000.0001)     ;
(PID.TID 0000.0001) celsius2K = /* 0 degree Celsius converted to Kelvin ( K ) */
(PID.TID 0000.0001)                 2.731500000000000E+02
(PID.TID 0000.0001)     ;
(PID.TID 0000.0001) rhoConst  = /* Reference density (Boussinesq)  ( kg/m^3 ) */
(PID.TID 0000.0001)                 1.026000000000000E+03
(PID.TID 0000.0001)     ;
(PID.TID 0000.0001) rhoFacC = /* normalized Reference density @ cell-Center (-) */
(PID.TID 0000.0001)                 1.000000000000000E+00       /* K =  1 */
(PID.TID 0000.0001)     ;
(PID.TID 0000.0001) rhoFacF = /* normalized Reference density @ W-Interface (-) */
(PID.TID 0000.0001)     2 @  1.000000000000000E+00              /* K =  1:  2 */
(PID.TID 0000.0001)     ;
(PID.TID 0000.0001) rhoConstFresh = /* Fresh-water reference density ( kg/m^3 ) */
(PID.TID 0000.0001)                 1.000000000000000E+03
(PID.TID 0000.0001)     ;
(PID.TID 0000.0001) gravity =   /* Gravitational acceleration ( m/s^2 ) */
(PID.TID 0000.0001)                 9.810000000000000E+00
(PID.TID 0000.0001)     ;
(PID.TID 0000.0001) gBaro =   /* Barotropic gravity ( m/s^2 ) */
(PID.TID 0000.0001)                 9.810000000000000E+00
(PID.TID 0000.0001)     ;
(PID.TID 0000.0001) gravFacC = /* gravity factor (vs surf.) @ cell-Center (-) */
(PID.TID 0000.0001)                 1.000000000000000E+00       /* K =  1 */
(PID.TID 0000.0001)     ;
(PID.TID 0000.0001) gravFacF = /* gravity factor (vs surf.) @ W-Interface (-) */
(PID.TID 0000.0001)     2 @  1.000000000000000E+00              /* K =  1:  2 */
(PID.TID 0000.0001)     ;
(PID.TID 0000.0001) rotationPeriod =   /* Rotation Period ( s ) */
(PID.TID 0000.0001)                 8.616400000000000E+04
(PID.TID 0000.0001)     ;
(PID.TID 0000.0001) omega =   /* Angular velocity ( rad/s ) */
(PID.TID 0000.0001)                 7.292123516990375E-05
(PID.TID 0000.0001)     ;
(PID.TID 0000.0001) f0 =   /* Reference coriolis parameter ( 1/s ) */
(PID.TID 0000.0001)                 1.460000000000000E-04
(PID.TID 0000.0001)     ;
(PID.TID 0000.0001) beta =   /* Beta ( 1/(m.s) ) */
(PID.TID 0000.0001)                 9.999999999999999E-12
(PID.TID 0000.0001)     ;
(PID.TID 0000.0001) fPrime =   /* Second coriolis parameter ( 1/s ) */
(PID.TID 0000.0001)                 0.000000000000000E+00
(PID.TID 0000.0001)     ;
(PID.TID 0000.0001) rigidLid =   /* Rigid lid on/off flag */
(PID.TID 0000.0001)                   F
(PID.TID 0000.0001)     ;
(PID.TID 0000.0001) implicitFreeSurface =   /* Implicit free surface on/off flag */
(PID.TID 0000.0001)                   T
(PID.TID 0000.0001)     ;
(PID.TID 0000.0001) freeSurfFac =   /* Implicit free surface factor */
(PID.TID 0000.0001)                 1.000000000000000E+00
(PID.TID 0000.0001)     ;
(PID.TID 0000.0001) implicSurfPress =  /* Surface Pressure implicit factor (0-1) */
(PID.TID 0000.0001)                 1.000000000000000E+00
(PID.TID 0000.0001)     ;
(PID.TID 0000.0001) implicDiv2DFlow =  /* Barot. Flow Div. implicit factor (0-1) */
(PID.TID 0000.0001)                 1.000000000000000E+00
(PID.TID 0000.0001)     ;
(PID.TID 0000.0001) uniformLin_PhiSurf = /* use uniform Bo_surf on/off flag */
(PID.TID 0000.0001)                   T
(PID.TID 0000.0001)     ;
(PID.TID 0000.0001) uniformFreeSurfLev = /* free-surface level-index is uniform */
(PID.TID 0000.0001)                   T
(PID.TID 0000.0001)     ;
(PID.TID 0000.0001) sIceLoadFac =  /* scale factor for sIceLoad (0-1) */
(PID.TID 0000.0001)                 1.000000000000000E+00
(PID.TID 0000.0001)     ;
(PID.TID 0000.0001) hFacMin =   /* minimum partial cell factor (hFac) */
(PID.TID 0000.0001)                 1.000000000000000E+00
(PID.TID 0000.0001)     ;
(PID.TID 0000.0001) hFacMinDr = /* minimum partial cell thickness ( m) */
(PID.TID 0000.0001)                 0.000000000000000E+00
(PID.TID 0000.0001)     ;
(PID.TID 0000.0001) exactConserv =  /* Exact Volume Conservation on/off flag */
(PID.TID 0000.0001)                   F
(PID.TID 0000.0001)     ;
(PID.TID 0000.0001) linFSConserveTr = /* Tracer correction for Lin Free Surface on/off flag */
(PID.TID 0000.0001)                   F
(PID.TID 0000.0001)     ;
(PID.TID 0000.0001) nonlinFreeSurf = /* Non-linear Free Surf. options (-1,0,1,2,3)*/
(PID.TID 0000.0001)                       0
(PID.TID 0000.0001)      -1,0= Off ; 1,2,3= On, 2=+rescale gU,gV, 3=+update cg2d solv.
(PID.TID 0000.0001)     ;
(PID.TID 0000.0001) hFacInf =   /* lower threshold for hFac (nonlinFreeSurf only)*/
(PID.TID 0000.0001)                 2.000000000000000E-01
(PID.TID 0000.0001)     ;
(PID.TID 0000.0001) hFacSup =   /* upper threshold for hFac (nonlinFreeSurf only)*/
(PID.TID 0000.0001)                 2.000000000000000E+00
(PID.TID 0000.0001)     ;
(PID.TID 0000.0001) select_rStar = /* r* Vertical coord. options (=0 r coord.; >0 uses r*)*/
(PID.TID 0000.0001)                       0
(PID.TID 0000.0001)     ;
(PID.TID 0000.0001) useRealFreshWaterFlux = /* Real Fresh Water Flux on/off flag*/
(PID.TID 0000.0001)                   F
(PID.TID 0000.0001)     ;
(PID.TID 0000.0001) temp_EvPrRn = /* Temp. of Evap/Prec/R (UNSET=use local T)(oC)*/
(PID.TID 0000.0001)                 1.234567000000000E+05
(PID.TID 0000.0001)     ;
(PID.TID 0000.0001) salt_EvPrRn = /* Salin. of Evap/Prec/R (UNSET=use local S)(g/kg)*/
(PID.TID 0000.0001)                 0.000000000000000E+00
(PID.TID 0000.0001)     ;
(PID.TID 0000.0001) selectAddFluid = /* option for mass source/sink of fluid (=0: off) */
(PID.TID 0000.0001)                       0
(PID.TID 0000.0001)     ;
(PID.TID 0000.0001) temp_addMass = /* Temp. of addMass array (UNSET=use local T)(oC)*/
(PID.TID 0000.0001)                 1.234567000000000E+05
(PID.TID 0000.0001)     ;
(PID.TID 0000.0001) salt_addMass = /* Salin. of addMass array (UNSET=use local S)(g/kg)*/
(PID.TID 0000.0001)                 0.000000000000000E+00
(PID.TID 0000.0001)     ;
(PID.TID 0000.0001) convertFW2Salt = /* convert F.W. Flux to Salt Flux (-1=use local S)(g/kg)*/
(PID.TID 0000.0001)                 3.500000000000000E+01
(PID.TID 0000.0001)     ;
(PID.TID 0000.0001) use3Dsolver = /* use 3-D pressure solver on/off flag */
(PID.TID 0000.0001)                   F
(PID.TID 0000.0001)     ;
(PID.TID 0000.0001) nonHydrostatic =  /* Non-Hydrostatic on/off flag */
(PID.TID 0000.0001)                   F
(PID.TID 0000.0001)     ;
(PID.TID 0000.0001) nh_Am2 = /* Non-Hydrostatic terms scaling factor */
(PID.TID 0000.0001)                 1.000000000000000E+00
(PID.TID 0000.0001)     ;
(PID.TID 0000.0001) implicitNHPress = /* Non-Hyd Pressure implicit factor (0-1)*/
(PID.TID 0000.0001)                 1.000000000000000E+00
(PID.TID 0000.0001)     ;
(PID.TID 0000.0001) selectNHfreeSurf = /* Non-Hyd (free-)Surface option */
(PID.TID 0000.0001)                       0
(PID.TID 0000.0001)     ;
(PID.TID 0000.0001) quasiHydrostatic = /* Quasi-Hydrostatic on/off flag */
(PID.TID 0000.0001)                   F
(PID.TID 0000.0001)     ;
(PID.TID 0000.0001) calc_wVelocity = /* vertical velocity calculation on/off flag */
(PID.TID 0000.0001)                   F
(PID.TID 0000.0001)     ;
(PID.TID 0000.0001) momStepping =  /* Momentum equation on/off flag */
(PID.TID 0000.0001)                   F
(PID.TID 0000.0001)     ;
(PID.TID 0000.0001) vectorInvariantMomentum= /* Vector-Invariant Momentum on/off */
(PID.TID 0000.0001)                   F
(PID.TID 0000.0001)     ;
(PID.TID 0000.0001) momAdvection =  /* Momentum advection on/off flag */
(PID.TID 0000.0001)                   F
(PID.TID 0000.0001)     ;
(PID.TID 0000.0001) momViscosity =  /* Momentum viscosity on/off flag */
(PID.TID 0000.0001)                   F
(PID.TID 0000.0001)     ;
(PID.TID 0000.0001) momImplVertAdv= /* Momentum implicit vert. advection on/off*/
(PID.TID 0000.0001)                   F
(PID.TID 0000.0001)     ;
(PID.TID 0000.0001) implicitViscosity = /* Implicit viscosity on/off flag */
(PID.TID 0000.0001)                   F
(PID.TID 0000.0001)     ;
(PID.TID 0000.0001) selectImplicitDrag= /* Implicit bot Drag options (0,1,2)*/
(PID.TID 0000.0001)                       0
(PID.TID 0000.0001)     0= Expl. ; 1= Impl. on provis. Vel ; 2= Fully Impl (with surf.P)
(PID.TID 0000.0001)     ;
(PID.TID 0000.0001) metricTerms =  /* metric-Terms on/off flag */
(PID.TID 0000.0001)                   F
(PID.TID 0000.0001)     ;
(PID.TID 0000.0001) useNHMTerms = /* Non-Hydrostatic Metric-Terms on/off */
(PID.TID 0000.0001)                   F
(PID.TID 0000.0001)     ;
(PID.TID 0000.0001) selectCoriMap = /* Coriolis Map options (0,1,2,3)*/
(PID.TID 0000.0001)                       1
(PID.TID 0000.0001)     0= f-Plane ; 1= Beta-Plane ; 2= Spherical ; 3= read from file
(PID.TID 0000.0001)     ;
(PID.TID 0000.0001) use3dCoriolis = /* 3-D Coriolis on/off flag */
(PID.TID 0000.0001)                   F
(PID.TID 0000.0001)     ;
(PID.TID 0000.0001) useCoriolis =  /* Coriolis on/off flag */
(PID.TID 0000.0001)                   F
(PID.TID 0000.0001)     ;
(PID.TID 0000.0001) useCDscheme =  /* CD scheme on/off flag */
(PID.TID 0000.0001)                   F
(PID.TID 0000.0001)     ;
(PID.TID 0000.0001) selectCoriScheme= /* Scheme selector for Coriolis-Term */
(PID.TID 0000.0001)                       0
(PID.TID 0000.0001)    = 0 : original discretization (simple averaging, no hFac)
(PID.TID 0000.0001)    = 1 : Wet-point averaging (Jamar & Ozer 1986)
(PID.TID 0000.0001)    = 2 : energy conserving scheme (no hFac weight)
(PID.TID 0000.0001)    = 3 : energy conserving scheme using Wet-point averaging
(PID.TID 0000.0001)     ;
(PID.TID 0000.0001) momForcing =  /* Momentum forcing on/off flag */
(PID.TID 0000.0001)                   F
(PID.TID 0000.0001)     ;
(PID.TID 0000.0001) momPressureForcing =  /* Momentum pressure term on/off flag */
(PID.TID 0000.0001)                   F
(PID.TID 0000.0001)     ;
(PID.TID 0000.0001) implicitIntGravWave= /* Implicit Internal Gravity Wave flag */
(PID.TID 0000.0001)                   F
(PID.TID 0000.0001)     ;
(PID.TID 0000.0001) staggerTimeStep =    /* Stagger time stepping on/off flag */
(PID.TID 0000.0001)                   F
(PID.TID 0000.0001)     ;
(PID.TID 0000.0001) doResetHFactors = /* reset thickness factors @ each time-step */
(PID.TID 0000.0001)                   F
(PID.TID 0000.0001)     ;
(PID.TID 0000.0001) multiDimAdvection =  /* enable/disable Multi-Dim Advection */
(PID.TID 0000.0001)                   T
(PID.TID 0000.0001)     ;
(PID.TID 0000.0001) useMultiDimAdvec =   /* Multi-Dim Advection is/is-not used */
(PID.TID 0000.0001)                   F
(PID.TID 0000.0001)     ;
(PID.TID 0000.0001) implicitDiffusion = /* Implicit Diffusion on/off flag */
(PID.TID 0000.0001)                   F
(PID.TID 0000.0001)     ;
(PID.TID 0000.0001) tempStepping =  /* Temperature equation on/off flag */
(PID.TID 0000.0001)                   F
(PID.TID 0000.0001)     ;
(PID.TID 0000.0001) tempAdvection = /* Temperature advection on/off flag */
(PID.TID 0000.0001)                   F
(PID.TID 0000.0001)     ;
(PID.TID 0000.0001) tempImplVertAdv = /* Temp. implicit vert. advection on/off */
(PID.TID 0000.0001)                   F
(PID.TID 0000.0001)     ;
(PID.TID 0000.0001) tempForcing  =  /* Temperature forcing on/off flag */
(PID.TID 0000.0001)                   F
(PID.TID 0000.0001)     ;
(PID.TID 0000.0001) doThetaClimRelax = /* apply SST relaxation on/off flag */
(PID.TID 0000.0001)                   F
(PID.TID 0000.0001)     ;
(PID.TID 0000.0001) tempIsActiveTr = /* Temp. is a dynamically Active Tracer */
(PID.TID 0000.0001)                   F
(PID.TID 0000.0001)     ;
(PID.TID 0000.0001) saltStepping =  /* Salinity equation on/off flag */
(PID.TID 0000.0001)                   F
(PID.TID 0000.0001)     ;
(PID.TID 0000.0001) saltAdvection = /* Salinity advection on/off flag */
(PID.TID 0000.0001)                   F
(PID.TID 0000.0001)     ;
(PID.TID 0000.0001) saltImplVertAdv = /* Sali. implicit vert. advection on/off */
(PID.TID 0000.0001)                   F
(PID.TID 0000.0001)     ;
(PID.TID 0000.0001) saltForcing  =  /* Salinity forcing on/off flag */
(PID.TID 0000.0001)                   F
(PID.TID 0000.0001)     ;
(PID.TID 0000.0001) doSaltClimRelax = /* apply SSS relaxation on/off flag */
(PID.TID 0000.0001)                   F
(PID.TID 0000.0001)     ;
(PID.TID 0000.0001) saltIsActiveTr = /* Salt  is a dynamically Active Tracer */
(PID.TID 0000.0001)                   F
(PID.TID 0000.0001)     ;
(PID.TID 0000.0001)  readBinaryPrec = /* Precision used for reading binary files */
(PID.TID 0000.0001)                      64
(PID.TID 0000.0001)     ;
(PID.TID 0000.0001) writeBinaryPrec = /* Precision used for writing binary files */
(PID.TID 0000.0001)                      32
(PID.TID 0000.0001)     ;
(PID.TID 0000.0001)  rwSuffixType =   /* select format of mds file suffix */
(PID.TID 0000.0001)                       0
(PID.TID 0000.0001)    = 0 : myIter (I10.10) ;   = 1 : 100*myTime (100th sec) ;
(PID.TID 0000.0001)    = 2 : myTime (seconds);   = 3 : myTime/360 (10th of hr);
(PID.TID 0000.0001)    = 4 : myTime/3600 (hours)
(PID.TID 0000.0001)     ;
(PID.TID 0000.0001)  globalFiles = /* write "global" (=not per tile) files */
(PID.TID 0000.0001)                   F
(PID.TID 0000.0001)     ;
(PID.TID 0000.0001)  useSingleCpuIO = /* only master MPI process does I/O */
(PID.TID 0000.0001)                   T
(PID.TID 0000.0001)     ;
(PID.TID 0000.0001)  useSingleCpuInput = /* only master process reads input */
(PID.TID 0000.0001)                   T
(PID.TID 0000.0001)     ;
(PID.TID 0000.0001) /* debLev[*]  : level of debug & auxiliary message printing */
(PID.TID 0000.0001) debLevZero =  0 ; /* level of disabled aux. msg printing */
(PID.TID 0000.0001)    debLevA =  1 ; /* level of minimum  aux. msg printing */
(PID.TID 0000.0001)    debLevB =  2 ; /* level of low aux. print (report read-file opening)*/
(PID.TID 0000.0001)    debLevC =  3 ; /* level of moderate debug prt (most pkgs debug msg) */
(PID.TID 0000.0001)    debLevD =  4 ; /* level of enhanced debug prt (add DEBUG_STATS prt) */
(PID.TID 0000.0001)    debLevE =  5 ; /* level of extensive debug printing */
(PID.TID 0000.0001) debugLevel =  /* select debug printing level */
(PID.TID 0000.0001)                       2
(PID.TID 0000.0001)     ;
(PID.TID 0000.0001)  plotLevel =  /* select PLOT_FIELD printing level */
(PID.TID 0000.0001)                       2
(PID.TID 0000.0001)     ;
(PID.TID 0000.0001) //
(PID.TID 0000.0001) // Elliptic solver(s) paramters ( PARM02 in namelist )
(PID.TID 0000.0001) //
(PID.TID 0000.0001) cg2dMaxIters =   /* Upper limit on 2d con. grad iterations  */
(PID.TID 0000.0001)                     500
(PID.TID 0000.0001)     ;
(PID.TID 0000.0001) cg2dMinItersNSA =   /* Minimum number of iterations of 2d con. grad solver  */
(PID.TID 0000.0001)                       0
(PID.TID 0000.0001)     ;
(PID.TID 0000.0001) cg2dUseMinResSol= /* use cg2d last-iter(=0) / min-resid.(=1) solution */
(PID.TID 0000.0001)                       0
(PID.TID 0000.0001)     ;
(PID.TID 0000.0001) cg2dTargetResidual =   /* 2d con. grad target residual  */
(PID.TID 0000.0001)                 1.000000000000000E-12
(PID.TID 0000.0001)     ;
(PID.TID 0000.0001) cg2dTargetResWunit =   /* CG2d target residual [W units] */
(PID.TID 0000.0001)                -1.000000000000000E+00
(PID.TID 0000.0001)     ;
(PID.TID 0000.0001) cg2dPreCondFreq =   /* Freq. for updating cg2d preconditioner */
(PID.TID 0000.0001)                       1
(PID.TID 0000.0001)     ;
(PID.TID 0000.0001) useSRCGSolver =  /* use single reduction CG solver(s) */
(PID.TID 0000.0001)                   F
(PID.TID 0000.0001)     ;
(PID.TID 0000.0001) useNSACGSolver =  /* use not-self-adjoint CG solver */
(PID.TID 0000.0001)                   F
(PID.TID 0000.0001)     ;
(PID.TID 0000.0001) printResidualFreq = /* Freq. for printing CG residual */
(PID.TID 0000.0001)                       0
(PID.TID 0000.0001)     ;
(PID.TID 0000.0001) //
(PID.TID 0000.0001) // Time stepping paramters ( PARM03 in namelist )
(PID.TID 0000.0001) //
(PID.TID 0000.0001) deltaTMom =   /* Momentum equation timestep ( s ) */
(PID.TID 0000.0001)                 2.500000000000000E+00
(PID.TID 0000.0001)     ;
(PID.TID 0000.0001) deltaTFreeSurf = /* FreeSurface equation timestep ( s ) */
(PID.TID 0000.0001)                 2.500000000000000E+00
(PID.TID 0000.0001)     ;
(PID.TID 0000.0001) dTtracerLev =  /* Tracer equation timestep ( s ) */
(PID.TID 0000.0001)                 2.500000000000000E+00       /* K =  1 */
(PID.TID 0000.0001)     ;
(PID.TID 0000.0001) deltaTClock  =   /* Model clock timestep ( s ) */
(PID.TID 0000.0001)                 2.500000000000000E+00
(PID.TID 0000.0001)     ;
(PID.TID 0000.0001) cAdjFreq =   /* Convective adjustment interval ( s ) */
(PID.TID 0000.0001)                 0.000000000000000E+00
(PID.TID 0000.0001)     ;
(PID.TID 0000.0001) momForcingOutAB = /* =1: take Momentum Forcing out of Adams-Bash. stepping */
(PID.TID 0000.0001)                       1
(PID.TID 0000.0001)     ;
(PID.TID 0000.0001) tracForcingOutAB = /* =1: take T,S,pTr Forcing out of Adams-Bash. stepping */
(PID.TID 0000.0001)                       1
(PID.TID 0000.0001)     ;
(PID.TID 0000.0001) momDissip_In_AB = /* put Dissipation Tendency in Adams-Bash. stepping */
(PID.TID 0000.0001)                   T
(PID.TID 0000.0001)     ;
(PID.TID 0000.0001) doAB_onGtGs = /* apply AB on Tendencies (rather than on T,S)*/
(PID.TID 0000.0001)                   T
(PID.TID 0000.0001)     ;
(PID.TID 0000.0001) abEps =   /* Adams-Bashforth-2 stabilizing weight */
(PID.TID 0000.0001)                 1.000000000000000E-01
(PID.TID 0000.0001)     ;
(PID.TID 0000.0001) applyExchUV_early = /* Apply EXCH to U,V earlier in time-step */
(PID.TID 0000.0001)                   F
(PID.TID 0000.0001)     ;
(PID.TID 0000.0001) pickupStrictlyMatch= /* stop if pickup do not strictly match */
(PID.TID 0000.0001)                   T
(PID.TID 0000.0001)     ;
(PID.TID 0000.0001) nIter0   =   /* Run starting timestep number */
(PID.TID 0000.0001)                       0
(PID.TID 0000.0001)     ;
(PID.TID 0000.0001) nTimeSteps = /* Number of timesteps */
(PID.TID 0000.0001)                      20
(PID.TID 0000.0001)     ;
(PID.TID 0000.0001) nEndIter =   /* Run ending timestep number */
(PID.TID 0000.0001)                      20
(PID.TID 0000.0001)     ;
(PID.TID 0000.0001) baseTime =   /* Model base time ( s ) */
(PID.TID 0000.0001)                 0.000000000000000E+00
(PID.TID 0000.0001)     ;
(PID.TID 0000.0001) startTime =  /* Run start time ( s ) */
(PID.TID 0000.0001)                 0.000000000000000E+00
(PID.TID 0000.0001)     ;
(PID.TID 0000.0001) endTime  =   /* Integration ending time ( s ) */
(PID.TID 0000.0001)                 5.000000000000000E+01
(PID.TID 0000.0001)     ;
(PID.TID 0000.0001) pChkPtFreq = /* Permanent restart/pickup file interval ( s ) */
(PID.TID 0000.0001)                 0.000000000000000E+00
(PID.TID 0000.0001)     ;
(PID.TID 0000.0001) chkPtFreq  = /* Rolling restart/pickup file interval ( s ) */
(PID.TID 0000.0001)                 0.000000000000000E+00
(PID.TID 0000.0001)     ;
(PID.TID 0000.0001) pickup_write_mdsio =   /* Model IO flag. */
(PID.TID 0000.0001)                   T
(PID.TID 0000.0001)     ;
(PID.TID 0000.0001) pickup_read_mdsio =   /* Model IO flag. */
(PID.TID 0000.0001)                   T
(PID.TID 0000.0001)     ;
(PID.TID 0000.0001) writePickupAtEnd =   /* Model IO flag. */
(PID.TID 0000.0001)                   T
(PID.TID 0000.0001)     ;
(PID.TID 0000.0001) dumpFreq =   /* Model state write out interval ( s ). */
(PID.TID 0000.0001)                 0.000000000000000E+00
(PID.TID 0000.0001)     ;
(PID.TID 0000.0001) dumpInitAndLast= /* write out Initial & Last iter. model state */
(PID.TID 0000.0001)                   T
(PID.TID 0000.0001)     ;
(PID.TID 0000.0001) snapshot_mdsio =   /* Model IO flag. */
(PID.TID 0000.0001)                   T
(PID.TID 0000.0001)     ;
(PID.TID 0000.0001) monitorFreq =   /* Monitor output interval ( s ). */
(PID.TID 0000.0001)                 2.500000000000000E+00
(PID.TID 0000.0001)     ;
(PID.TID 0000.0001) monitorSelect = /* select group of variables to monitor */
(PID.TID 0000.0001)                       2
(PID.TID 0000.0001)     ;
(PID.TID 0000.0001) monitor_stdio =   /* Model IO flag. */
(PID.TID 0000.0001)                   T
(PID.TID 0000.0001)     ;
(PID.TID 0000.0001) externForcingPeriod =   /* forcing period (s) */
(PID.TID 0000.0001)                 0.000000000000000E+00
(PID.TID 0000.0001)     ;
(PID.TID 0000.0001) externForcingCycle =   /* period of the cyle (s). */
(PID.TID 0000.0001)                 0.000000000000000E+00
(PID.TID 0000.0001)     ;
(PID.TID 0000.0001) tauThetaClimRelax =   /* relaxation time scale (s) */
(PID.TID 0000.0001)                 0.000000000000000E+00
(PID.TID 0000.0001)     ;
(PID.TID 0000.0001) tauSaltClimRelax =   /* relaxation time scale (s) */
(PID.TID 0000.0001)                 0.000000000000000E+00
(PID.TID 0000.0001)     ;
(PID.TID 0000.0001) latBandClimRelax =   /* max. Lat. where relaxation */
(PID.TID 0000.0001)                 1.560000000000000E+06
(PID.TID 0000.0001)     ;
(PID.TID 0000.0001) //
(PID.TID 0000.0001) // Gridding paramters ( PARM04 in namelist )
(PID.TID 0000.0001) //
(PID.TID 0000.0001) usingCartesianGrid = /* Cartesian coordinates flag ( True/False ) */
(PID.TID 0000.0001)                   T
(PID.TID 0000.0001)     ;
(PID.TID 0000.0001) usingCylindricalGrid = /* Cylindrical coordinates flag ( True/False ) */
(PID.TID 0000.0001)                   F
(PID.TID 0000.0001)     ;
(PID.TID 0000.0001) usingSphericalPolarGrid = /* Spherical coordinates flag ( True/False ) */
(PID.TID 0000.0001)                   F
(PID.TID 0000.0001)     ;
(PID.TID 0000.0001) usingCurvilinearGrid = /* Curvilinear coordinates flag ( True/False ) */
(PID.TID 0000.0001)                   F
(PID.TID 0000.0001)     ;
(PID.TID 0000.0001) useMin4hFacEdges = /* set hFacW,S as minimum of adjacent hFacC factor */
(PID.TID 0000.0001)                   F
(PID.TID 0000.0001)     ;
(PID.TID 0000.0001) interViscAr_pCell = /* account for partial-cell in interior vert. viscosity */
(PID.TID 0000.0001)                   F
(PID.TID 0000.0001)     ;
(PID.TID 0000.0001) interDiffKr_pCell = /* account for partial-cell in interior vert. diffusion */
(PID.TID 0000.0001)                   F
(PID.TID 0000.0001)     ;
(PID.TID 0000.0001) pCellMix_select = /* option to enhance mixing near surface & bottom */
(PID.TID 0000.0001)                       0
(PID.TID 0000.0001)     ;
(PID.TID 0000.0001) selectSigmaCoord = /* Hybrid-Sigma Vert. Coordinate option */
(PID.TID 0000.0001)                       0
(PID.TID 0000.0001)     ;
(PID.TID 0000.0001) rSigmaBnd = /* r/sigma transition ( units of r ==  m ) */
(PID.TID 0000.0001)                 1.234567000000000E+05
(PID.TID 0000.0001)     ;
(PID.TID 0000.0001) rkSign =   /* index orientation relative to vertical coordinate */
(PID.TID 0000.0001)                -1.000000000000000E+00
(PID.TID 0000.0001)     ;
(PID.TID 0000.0001) gravitySign = /* gravity orientation relative to vertical coordinate */
(PID.TID 0000.0001)                -1.000000000000000E+00
(PID.TID 0000.0001)     ;
(PID.TID 0000.0001) seaLev_Z =  /* reference height of sea-level [m] */
(PID.TID 0000.0001)                 0.000000000000000E+00
(PID.TID 0000.0001)     ;
(PID.TID 0000.0001) top_Pres =  /* reference pressure at the top [Pa] */
(PID.TID 0000.0001)                 0.000000000000000E+00
(PID.TID 0000.0001)     ;
(PID.TID 0000.0001) mass2rUnit = /* convert mass per unit area [kg/m2] to r-units [m] */
(PID.TID 0000.0001)                 9.746588693957114E-04
(PID.TID 0000.0001)     ;
(PID.TID 0000.0001) rUnit2mass = /* convert r-units [m] to mass per unit area [kg/m2] */
(PID.TID 0000.0001)                 1.026000000000000E+03
(PID.TID 0000.0001)     ;
(PID.TID 0000.0001) drC =   /* C spacing ( units of r ) */
(PID.TID 0000.0001)     2 @  5.000000000000000E+00              /* K =  1:  2 */
(PID.TID 0000.0001)     ;
(PID.TID 0000.0001) drF =   /* W spacing ( units of r ) */
(PID.TID 0000.0001)                 1.000000000000000E+01       /* K =  1 */
(PID.TID 0000.0001)     ;
(PID.TID 0000.0001) delX = /* U spacing ( m - cartesian, degrees - spherical ) */
(PID.TID 0000.0001)    65 @  8.000000000000000E+03              /* I =  1: 65 */
(PID.TID 0000.0001)     ;
(PID.TID 0000.0001) delY = /* V spacing ( m - cartesian, degrees - spherical ) */
(PID.TID 0000.0001)    65 @  8.000000000000000E+03              /* J =  1: 65 */
(PID.TID 0000.0001)     ;
(PID.TID 0000.0001) xgOrigin = /* X-axis origin of West  edge (cartesian: m, lat-lon: deg) */
(PID.TID 0000.0001)                 0.000000000000000E+00
(PID.TID 0000.0001)     ;
(PID.TID 0000.0001) ygOrigin = /* Y-axis origin of South edge (cartesian: m, lat-lon: deg) */
(PID.TID 0000.0001)                 0.000000000000000E+00
(PID.TID 0000.0001)     ;
(PID.TID 0000.0001) rSphere =  /* Radius ( ignored - cartesian, m - spherical ) */
(PID.TID 0000.0001)                 6.370000000000000E+06
(PID.TID 0000.0001)     ;
(PID.TID 0000.0001) deepAtmosphere = /* Deep/Shallow Atmosphere flag (True/False) */
(PID.TID 0000.0001)                   F
(PID.TID 0000.0001)     ;
(PID.TID 0000.0001) xC =  /* xC(:,1,:,1) : P-point X coord ( deg. or m if cartesian) */
(PID.TID 0000.0001)                 4.000000000000000E+03,      /* I =  1 */
(PID.TID 0000.0001)                 1.200000000000000E+04,      /* I =  2 */
(PID.TID 0000.0001)                 2.000000000000000E+04,      /* I =  3 */
(PID.TID 0000.0001)                 2.800000000000000E+04,      /* I =  4 */
(PID.TID 0000.0001)                 3.600000000000000E+04,      /* I =  5 */
(PID.TID 0000.0001)                 4.400000000000000E+04,      /* I =  6 */
(PID.TID 0000.0001)                 5.200000000000000E+04,      /* I =  7 */
(PID.TID 0000.0001)                 6.000000000000000E+04,      /* I =  8 */
(PID.TID 0000.0001)                 6.800000000000000E+04,      /* I =  9 */
(PID.TID 0000.0001)                 7.600000000000000E+04,      /* I = 10 */
(PID.TID 0000.0001)                 8.400000000000000E+04,      /* I = 11 */
(PID.TID 0000.0001)                 9.200000000000000E+04,      /* I = 12 */
(PID.TID 0000.0001)                 1.000000000000000E+05,      /* I = 13 */
(PID.TID 0000.0001)                 1.080000000000000E+05,      /* I = 14 */
(PID.TID 0000.0001)                 1.160000000000000E+05,      /* I = 15 */
(PID.TID 0000.0001)                 1.240000000000000E+05,      /* I = 16 */
(PID.TID 0000.0001)                 1.320000000000000E+05,      /* I = 17 */
(PID.TID 0000.0001)                 1.400000000000000E+05,      /* I = 18 */
(PID.TID 0000.0001)                 1.480000000000000E+05,      /* I = 19 */
(PID.TID 0000.0001)                 1.560000000000000E+05,      /* I = 20 */
(PID.TID 0000.0001)                 1.640000000000000E+05,      /* I = 21 */
(PID.TID 0000.0001)                 1.720000000000000E+05,      /* I = 22 */
(PID.TID 0000.0001)                 1.800000000000000E+05,      /* I = 23 */
(PID.TID 0000.0001)                 1.880000000000000E+05,      /* I = 24 */
(PID.TID 0000.0001)                 1.960000000000000E+05,      /* I = 25 */
(PID.TID 0000.0001)                 2.040000000000000E+05,      /* I = 26 */
(PID.TID 0000.0001)                 2.120000000000000E+05,      /* I = 27 */
(PID.TID 0000.0001)                 2.200000000000000E+05,      /* I = 28 */
(PID.TID 0000.0001)                 2.280000000000000E+05,      /* I = 29 */
(PID.TID 0000.0001)                 2.360000000000000E+05,      /* I = 30 */
(PID.TID 0000.0001)                 2.440000000000000E+05,      /* I = 31 */
(PID.TID 0000.0001)                 2.520000000000000E+05,      /* I = 32 */
(PID.TID 0000.0001)                 2.600000000000000E+05,      /* I = 33 */
(PID.TID 0000.0001)                 2.680000000000000E+05,      /* I = 34 */
(PID.TID 0000.0001)                 2.760000000000000E+05,      /* I = 35 */
(PID.TID 0000.0001)                 2.840000000000000E+05,      /* I = 36 */
(PID.TID 0000.0001)                 2.920000000000000E+05,      /* I = 37 */
(PID.TID 0000.0001)                 3.000000000000000E+05,      /* I = 38 */
(PID.TID 0000.0001)                 3.080000000000000E+05,      /* I = 39 */
(PID.TID 0000.0001)                 3.160000000000000E+05,      /* I = 40 */
(PID.TID 0000.0001)                 3.240000000000000E+05,      /* I = 41 */
(PID.TID 0000.0001)                 3.320000000000000E+05,      /* I = 42 */
(PID.TID 0000.0001)                 3.400000000000000E+05,      /* I = 43 */
(PID.TID 0000.0001)                 3.480000000000000E+05,      /* I = 44 */
(PID.TID 0000.0001)                 3.560000000000000E+05,      /* I = 45 */
(PID.TID 0000.0001)                 3.640000000000000E+05,      /* I = 46 */
(PID.TID 0000.0001)                 3.720000000000000E+05,      /* I = 47 */
(PID.TID 0000.0001)                 3.800000000000000E+05,      /* I = 48 */
(PID.TID 0000.0001)                 3.880000000000000E+05,      /* I = 49 */
(PID.TID 0000.0001)                 3.960000000000000E+05,      /* I = 50 */
(PID.TID 0000.0001)                 4.040000000000000E+05,      /* I = 51 */
(PID.TID 0000.0001)                 4.120000000000000E+05,      /* I = 52 */
(PID.TID 0000.0001)                 4.200000000000000E+05,      /* I = 53 */
(PID.TID 0000.0001)                 4.280000000000000E+05,      /* I = 54 */
(PID.TID 0000.0001)                 4.360000000000000E+05,      /* I = 55 */
(PID.TID 0000.0001)                 4.440000000000000E+05,      /* I = 56 */
(PID.TID 0000.0001)                 4.520000000000000E+05,      /* I = 57 */
(PID.TID 0000.0001)                 4.600000000000000E+05,      /* I = 58 */
(PID.TID 0000.0001)                 4.680000000000000E+05,      /* I = 59 */
(PID.TID 0000.0001)                 4.760000000000000E+05,      /* I = 60 */
(PID.TID 0000.0001)                 4.840000000000000E+05,      /* I = 61 */
(PID.TID 0000.0001)                 4.920000000000000E+05,      /* I = 62 */
(PID.TID 0000.0001)                 5.000000000000000E+05,      /* I = 63 */
(PID.TID 0000.0001)                 5.080000000000000E+05,      /* I = 64 */
(PID.TID 0000.0001)                 5.160000000000000E+05       /* I = 65 */
(PID.TID 0000.0001)     ;
(PID.TID 0000.0001) yC =  /* yC(1,:,1,:) : P-point Y coord ( deg. or m if cartesian) */
(PID.TID 0000.0001)                 4.000000000000000E+03,      /* J =  1 */
(PID.TID 0000.0001)                 1.200000000000000E+04,      /* J =  2 */
(PID.TID 0000.0001)                 2.000000000000000E+04,      /* J =  3 */
(PID.TID 0000.0001)                 2.800000000000000E+04,      /* J =  4 */
(PID.TID 0000.0001)                 3.600000000000000E+04,      /* J =  5 */
(PID.TID 0000.0001)                 4.400000000000000E+04,      /* J =  6 */
(PID.TID 0000.0001)                 5.200000000000000E+04,      /* J =  7 */
(PID.TID 0000.0001)                 6.000000000000000E+04,      /* J =  8 */
(PID.TID 0000.0001)                 6.800000000000000E+04,      /* J =  9 */
(PID.TID 0000.0001)                 7.600000000000000E+04,      /* J = 10 */
(PID.TID 0000.0001)                 8.400000000000000E+04,      /* J = 11 */
(PID.TID 0000.0001)                 9.200000000000000E+04,      /* J = 12 */
(PID.TID 0000.0001)                 1.000000000000000E+05,      /* J = 13 */
(PID.TID 0000.0001)                 1.080000000000000E+05,      /* J = 14 */
(PID.TID 0000.0001)                 1.160000000000000E+05,      /* J = 15 */
(PID.TID 0000.0001)                 1.240000000000000E+05,      /* J = 16 */
(PID.TID 0000.0001)                 1.320000000000000E+05,      /* J = 17 */
(PID.TID 0000.0001)                 1.400000000000000E+05,      /* J = 18 */
(PID.TID 0000.0001)                 1.480000000000000E+05,      /* J = 19 */
(PID.TID 0000.0001)                 1.560000000000000E+05,      /* J = 20 */
(PID.TID 0000.0001)                 1.640000000000000E+05,      /* J = 21 */
(PID.TID 0000.0001)                 1.720000000000000E+05,      /* J = 22 */
(PID.TID 0000.0001)                 1.800000000000000E+05,      /* J = 23 */
(PID.TID 0000.0001)                 1.880000000000000E+05,      /* J = 24 */
(PID.TID 0000.0001)                 1.960000000000000E+05,      /* J = 25 */
(PID.TID 0000.0001)                 2.040000000000000E+05,      /* J = 26 */
(PID.TID 0000.0001)                 2.120000000000000E+05,      /* J = 27 */
(PID.TID 0000.0001)                 2.200000000000000E+05,      /* J = 28 */
(PID.TID 0000.0001)                 2.280000000000000E+05,      /* J = 29 */
(PID.TID 0000.0001)                 2.360000000000000E+05,      /* J = 30 */
(PID.TID 0000.0001)                 2.440000000000000E+05,      /* J = 31 */
(PID.TID 0000.0001)                 2.520000000000000E+05,      /* J = 32 */
(PID.TID 0000.0001)                 2.600000000000000E+05,      /* J = 33 */
(PID.TID 0000.0001)                 2.680000000000000E+05,      /* J = 34 */
(PID.TID 0000.0001)                 2.760000000000000E+05,      /* J = 35 */
(PID.TID 0000.0001)                 2.840000000000000E+05,      /* J = 36 */
(PID.TID 0000.0001)                 2.920000000000000E+05,      /* J = 37 */
(PID.TID 0000.0001)                 3.000000000000000E+05,      /* J = 38 */
(PID.TID 0000.0001)                 3.080000000000000E+05,      /* J = 39 */
(PID.TID 0000.0001)                 3.160000000000000E+05,      /* J = 40 */
(PID.TID 0000.0001)                 3.240000000000000E+05,      /* J = 41 */
(PID.TID 0000.0001)                 3.320000000000000E+05,      /* J = 42 */
(PID.TID 0000.0001)                 3.400000000000000E+05,      /* J = 43 */
(PID.TID 0000.0001)                 3.480000000000000E+05,      /* J = 44 */
(PID.TID 0000.0001)                 3.560000000000000E+05,      /* J = 45 */
(PID.TID 0000.0001)                 3.640000000000000E+05,      /* J = 46 */
(PID.TID 0000.0001)                 3.720000000000000E+05,      /* J = 47 */
(PID.TID 0000.0001)                 3.800000000000000E+05,      /* J = 48 */
(PID.TID 0000.0001)                 3.880000000000000E+05,      /* J = 49 */
(PID.TID 0000.0001)                 3.960000000000000E+05,      /* J = 50 */
(PID.TID 0000.0001)                 4.040000000000000E+05,      /* J = 51 */
(PID.TID 0000.0001)                 4.120000000000000E+05,      /* J = 52 */
(PID.TID 0000.0001)                 4.200000000000000E+05,      /* J = 53 */
(PID.TID 0000.0001)                 4.280000000000000E+05,      /* J = 54 */
(PID.TID 0000.0001)                 4.360000000000000E+05,      /* J = 55 */
(PID.TID 0000.0001)                 4.440000000000000E+05,      /* J = 56 */
(PID.TID 0000.0001)                 4.520000000000000E+05,      /* J = 57 */
(PID.TID 0000.0001)                 4.600000000000000E+05,      /* J = 58 */
(PID.TID 0000.0001)                 4.680000000000000E+05,      /* J = 59 */
(PID.TID 0000.0001)                 4.760000000000000E+05,      /* J = 60 */
(PID.TID 0000.0001)                 4.840000000000000E+05,      /* J = 61 */
(PID.TID 0000.0001)                 4.920000000000000E+05,      /* J = 62 */
(PID.TID 0000.0001)                 5.000000000000000E+05,      /* J = 63 */
(PID.TID 0000.0001)                 5.080000000000000E+05,      /* J = 64 */
(PID.TID 0000.0001)                 5.160000000000000E+05       /* J = 65 */
(PID.TID 0000.0001)     ;
(PID.TID 0000.0001) rcoord = /* P-point R coordinate (  units of r ) */
(PID.TID 0000.0001)                -5.000000000000000E+00       /* K =  1 */
(PID.TID 0000.0001)     ;
(PID.TID 0000.0001) rF =   /* W-Interf. R coordinate (  units of r ) */
(PID.TID 0000.0001)                 0.000000000000000E+00,      /* K =  1 */
(PID.TID 0000.0001)                -1.000000000000000E+01       /* K =  2 */
(PID.TID 0000.0001)     ;
(PID.TID 0000.0001) deepFacC = /* deep-model grid factor @ cell-Center (-) */
(PID.TID 0000.0001)                 1.000000000000000E+00       /* K =  1 */
(PID.TID 0000.0001)     ;
(PID.TID 0000.0001) deepFacF = /* deep-model grid factor @ W-Interface (-) */
(PID.TID 0000.0001)     2 @  1.000000000000000E+00              /* K =  1:  2 */
(PID.TID 0000.0001)     ;
(PID.TID 0000.0001) rVel2wUnit = /* convert units: rVel -> wSpeed (=1 if z-coord)*/
(PID.TID 0000.0001)     2 @  1.000000000000000E+00              /* K =  1:  2 */
(PID.TID 0000.0001)     ;
(PID.TID 0000.0001) wUnit2rVel = /* convert units: wSpeed -> rVel (=1 if z-coord)*/
(PID.TID 0000.0001)     2 @  1.000000000000000E+00              /* K =  1:  2 */
(PID.TID 0000.0001)     ;
(PID.TID 0000.0001) dBdrRef = /* Vertical grad. of reference buoyancy [(m/s/r)^2] */
(PID.TID 0000.0001)                 0.000000000000000E+00       /* K =  1 */
(PID.TID 0000.0001)     ;
(PID.TID 0000.0001) rotateGrid = /* use rotated grid ( True/False ) */
(PID.TID 0000.0001)                   F
(PID.TID 0000.0001)     ;
(PID.TID 0000.0001) phiEuler = /* Euler angle, rotation about original z-coordinate [rad] */
(PID.TID 0000.0001)                 0.000000000000000E+00
(PID.TID 0000.0001)     ;
(PID.TID 0000.0001) thetaEuler = /* Euler angle, rotation about new x-coordinate [rad] */
(PID.TID 0000.0001)                 0.000000000000000E+00
(PID.TID 0000.0001)     ;
(PID.TID 0000.0001) psiEuler = /* Euler angle, rotation about new z-coordinate [rad] */
(PID.TID 0000.0001)                 0.000000000000000E+00
(PID.TID 0000.0001)     ;
(PID.TID 0000.0001) dxF =  /* dxF(:,1,:,1) ( units: m ) */
(PID.TID 0000.0001)    65 @  8.000000000000000E+03              /* I =  1: 65 */
(PID.TID 0000.0001)     ;
(PID.TID 0000.0001) dxF =  /* dxF(1,:,1,:) ( units: m ) */
(PID.TID 0000.0001)    65 @  8.000000000000000E+03              /* J =  1: 65 */
(PID.TID 0000.0001)     ;
(PID.TID 0000.0001) dyF =  /* dyF(:,1,:,1) ( units: m ) */
(PID.TID 0000.0001)    65 @  8.000000000000000E+03              /* I =  1: 65 */
(PID.TID 0000.0001)     ;
(PID.TID 0000.0001) dyF =  /* dyF(1,:,1,:) ( units: m ) */
(PID.TID 0000.0001)    65 @  8.000000000000000E+03              /* J =  1: 65 */
(PID.TID 0000.0001)     ;
(PID.TID 0000.0001) dxG =  /* dxG(:,1,:,1) ( units: m ) */
(PID.TID 0000.0001)    65 @  8.000000000000000E+03              /* I =  1: 65 */
(PID.TID 0000.0001)     ;
(PID.TID 0000.0001) dxG =  /* dxG(1,:,1,:) ( units: m ) */
(PID.TID 0000.0001)    65 @  8.000000000000000E+03              /* J =  1: 65 */
(PID.TID 0000.0001)     ;
(PID.TID 0000.0001) dyG =  /* dyG(:,1,:,1) ( units: m ) */
(PID.TID 0000.0001)    65 @  8.000000000000000E+03              /* I =  1: 65 */
(PID.TID 0000.0001)     ;
(PID.TID 0000.0001) dyG =  /* dyG(1,:,1,:) ( units: m ) */
(PID.TID 0000.0001)    65 @  8.000000000000000E+03              /* J =  1: 65 */
(PID.TID 0000.0001)     ;
(PID.TID 0000.0001) dxC =  /* dxC(:,1,:,1) ( units: m ) */
(PID.TID 0000.0001)    65 @  8.000000000000000E+03              /* I =  1: 65 */
(PID.TID 0000.0001)     ;
(PID.TID 0000.0001) dxC =  /* dxC(1,:,1,:) ( units: m ) */
(PID.TID 0000.0001)    65 @  8.000000000000000E+03              /* J =  1: 65 */
(PID.TID 0000.0001)     ;
(PID.TID 0000.0001) dyC =  /* dyC(:,1,:,1) ( units: m ) */
(PID.TID 0000.0001)    65 @  8.000000000000000E+03              /* I =  1: 65 */
(PID.TID 0000.0001)     ;
(PID.TID 0000.0001) dyC =  /* dyC(1,:,1,:) ( units: m ) */
(PID.TID 0000.0001)    65 @  8.000000000000000E+03              /* J =  1: 65 */
(PID.TID 0000.0001)     ;
(PID.TID 0000.0001) dxV =  /* dxV(:,1,:,1) ( units: m ) */
(PID.TID 0000.0001)    65 @  8.000000000000000E+03              /* I =  1: 65 */
(PID.TID 0000.0001)     ;
(PID.TID 0000.0001) dxV =  /* dxV(1,:,1,:) ( units: m ) */
(PID.TID 0000.0001)    65 @  8.000000000000000E+03              /* J =  1: 65 */
(PID.TID 0000.0001)     ;
(PID.TID 0000.0001) dyU =  /* dyU(:,1,:,1) ( units: m ) */
(PID.TID 0000.0001)    65 @  8.000000000000000E+03              /* I =  1: 65 */
(PID.TID 0000.0001)     ;
(PID.TID 0000.0001) dyU =  /* dyU(1,:,1,:) ( units: m ) */
(PID.TID 0000.0001)    65 @  8.000000000000000E+03              /* J =  1: 65 */
(PID.TID 0000.0001)     ;
(PID.TID 0000.0001) rA  =  /* rA (:,1,:,1) ( units: m^2 ) */
(PID.TID 0000.0001)    65 @  6.400000000000000E+07              /* I =  1: 65 */
(PID.TID 0000.0001)     ;
(PID.TID 0000.0001) rA  =  /* rA (1,:,1,:) ( units: m^2 ) */
(PID.TID 0000.0001)    65 @  6.400000000000000E+07              /* J =  1: 65 */
(PID.TID 0000.0001)     ;
(PID.TID 0000.0001) rAw =  /* rAw(:,1,:,1) ( units: m^2 ) */
(PID.TID 0000.0001)    65 @  6.400000000000000E+07              /* I =  1: 65 */
(PID.TID 0000.0001)     ;
(PID.TID 0000.0001) rAw =  /* rAw(1,:,1,:) ( units: m^2 ) */
(PID.TID 0000.0001)    65 @  6.400000000000000E+07              /* J =  1: 65 */
(PID.TID 0000.0001)     ;
(PID.TID 0000.0001) rAs =  /* rAs(:,1,:,1) ( units: m^2 ) */
(PID.TID 0000.0001)    65 @  6.400000000000000E+07              /* I =  1: 65 */
(PID.TID 0000.0001)     ;
(PID.TID 0000.0001) rAs =  /* rAs(1,:,1,:) ( units: m^2 ) */
(PID.TID 0000.0001)    65 @  6.400000000000000E+07              /* J =  1: 65 */
(PID.TID 0000.0001)     ;
(PID.TID 0000.0001) globalArea = /* Integrated horizontal Area (m^2) */
(PID.TID 0000.0001)                 2.621440000000000E+11
(PID.TID 0000.0001)     ;
(PID.TID 0000.0001) // =======================================================
(PID.TID 0000.0001) // End of Model config. summary
(PID.TID 0000.0001) // =======================================================
(PID.TID 0000.0001) 
(PID.TID 0000.0001) == Packages configuration : Check & print summary ==
(PID.TID 0000.0001) 
(PID.TID 0000.0001) EXF_CHECK: #define ALLOW_EXF
(PID.TID 0000.0001) SEAICE_CHECK: #define ALLOW_SEAICE
(PID.TID 0000.0001) // =======================================================
(PID.TID 0000.0001) // Check Model config. (CONFIG_CHECK):
(PID.TID 0000.0001) // CONFIG_CHECK : Normal End
(PID.TID 0000.0001) // =======================================================
(PID.TID 0000.0001) 
(PID.TID 0000.0001)  MDS_READ_FIELD: opening global file: uVel_8000.bin
(PID.TID 0000.0001)  MDS_READ_FIELD: opening global file: vVel_8000.bin
(PID.TID 0000.0001) Start initial hydrostatic pressure computation
(PID.TID 0000.0001) Pressure is predetermined for buoyancyRelation OCEANIC
(PID.TID 0000.0001) 
(PID.TID 0000.0001)  write diagnostics summary to file ioUnit:      6
Iter.Nb:         0 ; Time(s):  0.0000000000000E+00
------------------------------------------------------------------------
2D/3D diagnostics: Number of lists:     1
------------------------------------------------------------------------
listId=    1 ; file name: snapshot
 nFlds, nActive,       freq     &     phase        , nLev               
   13  |   13  |         1.000000         0.000000 |   1
 levels:   1
 diag# | name   |   ipt  |  iMate | kLev|   count |   mate.C|           
   163 |SIuice  |      1 |      2 |   1 |       0 |       0 |
   164 |SIvice  |      2 |      1 |   1 |       0 |       0 |
   149 |SIheff  |      3 |      0 |   1 |       0 |
   146 |SIarea  |      4 |      0 |   1 |       0 |
   228 |SIshear |      5 |      0 |   1 |       0 |
   233 |SIcohes |      6 |      0 |   1 |       0 |
   221 |SIsig1  |      7 |      0 |   1 |       0 |
   222 |SIsig2  |      8 |      0 |   1 |       0 |
   231 |SIdamage|      9 |      0 |   1 |       0 |
   165 |SItaux  |     10 |     11 |   1 |       0 |       0 |
   166 |SItauy  |     11 |     10 |   1 |       0 |       0 |
   133 |EXFuwind|     12 |      0 |   1 |       0 |
   134 |EXFvwind|     13 |      0 |   1 |       0 |
------------------------------------------------------------------------
Global & Regional Statistics diagnostics: Number of lists:     0
------------------------------------------------------------------------
(PID.TID 0000.0001)  MDS_READ_FIELD: opening global file: thickness_aniso_8000.bin
(PID.TID 0000.0001)  MDS_READ_FIELD: opening global file: const_1.0_8000.bin
(PID.TID 0000.0001)  MDS_READ_FIELD: opening global file: const_00_8000.bin
(PID.TID 0000.0001) // =======================================================
(PID.TID 0000.0001) // Model current state
(PID.TID 0000.0001) // =======================================================
(PID.TID 0000.0001) 
(PID.TID 0000.0001) // =======================================================
(PID.TID 0000.0001) // Begin MONITOR dynamic field statistics
(PID.TID 0000.0001) // =======================================================
(PID.TID 0000.0001) %MON time_tsnumber                =                     0
(PID.TID 0000.0001) %MON time_secondsf                =   0.0000000000000E+00
(PID.TID 0000.0001) %MON dynstat_eta_max              =   0.0000000000000E+00
(PID.TID 0000.0001) %MON dynstat_eta_min              =   0.0000000000000E+00
(PID.TID 0000.0001) %MON dynstat_eta_mean             =   0.0000000000000E+00
(PID.TID 0000.0001) %MON dynstat_eta_sd               =   0.0000000000000E+00
(PID.TID 0000.0001) %MON dynstat_eta_del2             =   0.0000000000000E+00
(PID.TID 0000.0001) %MON dynstat_uvel_max             =   9.8437500000000E-03
(PID.TID 0000.0001) %MON dynstat_uvel_min             =  -9.8437500000000E-03
(PID.TID 0000.0001) %MON dynstat_uvel_mean            =   0.0000000000000E+00
(PID.TID 0000.0001) %MON dynstat_uvel_sd              =   5.7727978755972E-03
(PID.TID 0000.0001) %MON dynstat_uvel_del2            =   1.0089048364799E-20
(PID.TID 0000.0001) %MON dynstat_vvel_max             =   9.8437500000000E-03
(PID.TID 0000.0001) %MON dynstat_vvel_min             =  -9.8437500000000E-03
(PID.TID 0000.0001) %MON dynstat_vvel_mean            =   0.0000000000000E+00
(PID.TID 0000.0001) %MON dynstat_vvel_sd              =   5.7727978755972E-03
(PID.TID 0000.0001) %MON dynstat_vvel_del2            =   1.0089048364799E-20
(PID.TID 0000.0001) %MON dynstat_wvel_max             =   1.1914062500000E-05
(PID.TID 0000.0001) %MON dynstat_wvel_min             =  -1.1914062500000E-05
(PID.TID 0000.0001) %MON dynstat_wvel_mean            =   3.4694469519536E-25
(PID.TID 0000.0001) %MON dynstat_wvel_sd              =   1.7200872247780E-06
(PID.TID 0000.0001) %MON dynstat_wvel_del2            =   2.8187489626940E-08
(PID.TID 0000.0001) %MON dynstat_theta_max            =  -1.6200000000000E+00
(PID.TID 0000.0001) %MON dynstat_theta_min            =  -1.6200000000000E+00
(PID.TID 0000.0001) %MON dynstat_theta_mean           =  -1.6200000000000E+00
(PID.TID 0000.0001) %MON dynstat_theta_sd             =   0.0000000000000E+00
(PID.TID 0000.0001) %MON dynstat_theta_del2           =   0.0000000000000E+00
(PID.TID 0000.0001) %MON dynstat_salt_max             =   3.0000000000000E+01
(PID.TID 0000.0001) %MON dynstat_salt_min             =   3.0000000000000E+01
(PID.TID 0000.0001) %MON dynstat_salt_mean            =   3.0000000000000E+01
(PID.TID 0000.0001) %MON dynstat_salt_sd              =   0.0000000000000E+00
(PID.TID 0000.0001) %MON dynstat_salt_del2            =   0.0000000000000E+00
(PID.TID 0000.0001) %MON trAdv_CFL_u_max              =   0.0000000000000E+00
(PID.TID 0000.0001) %MON trAdv_CFL_v_max              =   0.0000000000000E+00
(PID.TID 0000.0001) %MON trAdv_CFL_w_max              =   0.0000000000000E+00
(PID.TID 0000.0001) %MON advcfl_uvel_max              =   3.0761718750000E-06
(PID.TID 0000.0001) %MON advcfl_vvel_max              =   3.0761718750000E-06
(PID.TID 0000.0001) %MON advcfl_wvel_max              =   5.9570312500000E-06
(PID.TID 0000.0001) %MON advcfl_W_hf_max              =   0.0000000000000E+00
(PID.TID 0000.0001) %MON pe_b_mean                    =   0.0000000000000E+00
(PID.TID 0000.0001) %MON ke_max                       =   9.0844726562500E-05
(PID.TID 0000.0001) %MON ke_mean                      =   3.2804489135742E-05
(PID.TID 0000.0001) %MON ke_vol                       =   2.6214400000000E+12
(PID.TID 0000.0001) %MON vort_r_min                   =  -7.8125000000000E-08
(PID.TID 0000.0001) %MON vort_r_max                   =   1.2304687500000E-06
(PID.TID 0000.0001) %MON vort_a_mean                  =   1.4856000000000E-04
(PID.TID 0000.0001) %MON vort_a_sd                    =   1.5312918562496E-06
(PID.TID 0000.0001) %MON vort_p_mean                  =   1.5552375000000E-04
(PID.TID 0000.0001) %MON vort_p_sd                    =   5.5921473110222E-05
(PID.TID 0000.0001) %MON surfExpan_theta_mean         =   0.0000000000000E+00
(PID.TID 0000.0001) %MON surfExpan_salt_mean          =   1.3877787807814E-23
(PID.TID 0000.0001) // =======================================================
(PID.TID 0000.0001) // End MONITOR dynamic field statistics
(PID.TID 0000.0001) // =======================================================
(PID.TID 0000.0001) // =======================================================
(PID.TID 0000.0001) // Begin MONITOR SEAICE statistics
(PID.TID 0000.0001) // =======================================================
(PID.TID 0000.0001) %MON seaice_tsnumber              =                     0
(PID.TID 0000.0001) %MON seaice_time_sec              =   0.0000000000000E+00
(PID.TID 0000.0001) %MON seaice_uice_max              =   0.0000000000000E+00
(PID.TID 0000.0001) %MON seaice_uice_min              =   0.0000000000000E+00
(PID.TID 0000.0001) %MON seaice_uice_mean             =   0.0000000000000E+00
(PID.TID 0000.0001) %MON seaice_uice_sd               =   0.0000000000000E+00
(PID.TID 0000.0001) %MON seaice_uice_del2             =   0.0000000000000E+00
(PID.TID 0000.0001) %MON seaice_vice_max              =   0.0000000000000E+00
(PID.TID 0000.0001) %MON seaice_vice_min              =   0.0000000000000E+00
(PID.TID 0000.0001) %MON seaice_vice_mean             =   0.0000000000000E+00
(PID.TID 0000.0001) %MON seaice_vice_sd               =   0.0000000000000E+00
(PID.TID 0000.0001) %MON seaice_vice_del2             =   0.0000000000000E+00
(PID.TID 0000.0001) %MON seaice_area_max              =   1.0000000000000E+00
(PID.TID 0000.0001) %MON seaice_area_min              =   1.0000000000000E+00
(PID.TID 0000.0001) %MON seaice_area_mean             =   1.0000000000000E+00
(PID.TID 0000.0001) %MON seaice_area_sd               =   0.0000000000000E+00
(PID.TID 0000.0001) %MON seaice_area_del2             =   0.0000000000000E+00
(PID.TID 0000.0001) %MON seaice_heff_max              =   3.0999867310186E-01
(PID.TID 0000.0001) %MON seaice_heff_min              =   2.9006056612617E-01
(PID.TID 0000.0001) %MON seaice_heff_mean             =   3.0067126525963E-01
(PID.TID 0000.0001) %MON seaice_heff_sd               =   5.0069223596193E-03
(PID.TID 0000.0001) %MON seaice_heff_del2             =   1.2853747988410E-05
(PID.TID 0000.0001) %MON seaice_hsnow_max             =   0.0000000000000E+00
(PID.TID 0000.0001) %MON seaice_hsnow_min             =   0.0000000000000E+00
(PID.TID 0000.0001) %MON seaice_hsnow_mean            =   0.0000000000000E+00
(PID.TID 0000.0001) %MON seaice_hsnow_sd              =   0.0000000000000E+00
(PID.TID 0000.0001) %MON seaice_hsnow_del2            =   0.0000000000000E+00
(PID.TID 0000.0001) // =======================================================
(PID.TID 0000.0001) // End MONITOR SEAICE statistics
(PID.TID 0000.0001) // =======================================================
(PID.TID 0000.0001)  MDS_READ_FIELD: opening global file: Uwindfield_shifted_8000.bin
(PID.TID 0000.0001)  MDS_READ_FIELD: opening global file: Uwindfield_shifted_8000.bin
(PID.TID 0000.0001)  MDS_READ_FIELD: opening global file: Vwindfield_shifted_8000.bin
(PID.TID 0000.0001)  MDS_READ_FIELD: opening global file: Vwindfield_shifted_8000.bin
(PID.TID 0000.0001) // =======================================================
(PID.TID 0000.0001) // Begin MONITOR EXF statistics
(PID.TID 0000.0001) // =======================================================
(PID.TID 0000.0001) %MON exf_tsnumber                 =                     0
(PID.TID 0000.0001) %MON exf_time_sec                 =   0.0000000000000E+00
(PID.TID 0000.0001) %MON exf_ustress_max              =   1.9231141691350E-01
(PID.TID 0000.0001) %MON exf_ustress_min              =  -1.9231141691350E-01
(PID.TID 0000.0001) %MON exf_ustress_mean             =  -8.4320106452651E-18
(PID.TID 0000.0001) %MON exf_ustress_sd               =   7.8445850617811E-02
(PID.TID 0000.0001) %MON exf_ustress_del2             =   1.8001144613245E-05
(PID.TID 0000.0001) %MON exf_vstress_max              =   1.9231141691350E-01
(PID.TID 0000.0001) %MON exf_vstress_min              =  -1.9231141691350E-01
(PID.TID 0000.0001) %MON exf_vstress_mean             =  -3.0929925287637E-18
(PID.TID 0000.0001) %MON exf_vstress_sd               =   7.8445850617811E-02
(PID.TID 0000.0001) %MON exf_vstress_del2             =   1.8001144613245E-05
(PID.TID 0000.0001) %MON exf_hflux_max                =   1.4838217697133E+02
(PID.TID 0000.0001) %MON exf_hflux_min                =   2.3433846067661E+01
(PID.TID 0000.0001) %MON exf_hflux_mean               =   1.0026753680428E+02
(PID.TID 0000.0001) %MON exf_hflux_sd                 =   3.0838562944901E+01
(PID.TID 0000.0001) %MON exf_hflux_del2               =   1.9427109427666E-02
(PID.TID 0000.0001) %MON exf_sflux_max                =   6.5752836695678E-08
(PID.TID 0000.0001) %MON exf_sflux_min                =   1.0404356137878E-08
(PID.TID 0000.0001) %MON exf_sflux_mean               =   4.4435192388582E-08
(PID.TID 0000.0001) %MON exf_sflux_sd                 =   1.3662828951091E-08
(PID.TID 0000.0001) %MON exf_sflux_del2               =   8.6031990164249E-12
(PID.TID 0000.0001) %MON exf_uwind_max                =   1.1026131745390E+01
(PID.TID 0000.0001) %MON exf_uwind_min                =  -1.1026131745390E+01
(PID.TID 0000.0001) %MON exf_uwind_mean               =   1.2732925824821E-17
(PID.TID 0000.0001) %MON exf_uwind_sd                 =   5.7462157775969E+00
(PID.TID 0000.0001) %MON exf_uwind_del2               =   9.3546309493694E-04
(PID.TID 0000.0001) %MON exf_vwind_max                =   1.1026131745390E+01
(PID.TID 0000.0001) %MON exf_vwind_min                =  -1.1026131745390E+01
(PID.TID 0000.0001) %MON exf_vwind_mean               =  -9.7179508884437E-17
(PID.TID 0000.0001) %MON exf_vwind_sd                 =   5.7462157775969E+00
(PID.TID 0000.0001) %MON exf_vwind_del2               =   9.3546309493693E-04
(PID.TID 0000.0001) %MON exf_wspeed_max               =   1.1036379708204E+01
(PID.TID 0000.0001) %MON exf_wspeed_min               =   1.6037210808494E+00
(PID.TID 0000.0001) %MON exf_wspeed_mean              =   7.8300458826945E+00
(PID.TID 0000.0001) %MON exf_wspeed_sd                =   2.1744822372939E+00
(PID.TID 0000.0001) %MON exf_wspeed_del2              =   1.6416115697052E-03
(PID.TID 0000.0001) %MON exf_evap_max                 =   6.5752836695678E-08
(PID.TID 0000.0001) %MON exf_evap_min                 =   1.0404356137878E-08
(PID.TID 0000.0001) %MON exf_evap_mean                =   4.4435192388582E-08
(PID.TID 0000.0001) %MON exf_evap_sd                  =   1.3662828951091E-08
(PID.TID 0000.0001) %MON exf_evap_del2                =   8.6031990164249E-12
(PID.TID 0000.0001) // =======================================================
(PID.TID 0000.0001) // End MONITOR EXF statistics
(PID.TID 0000.0001) // =======================================================
(PID.TID 0000.0001)  S/R SEAICE_KRYLOV: Picard iterate / total, KRYLOVgamma_lin, initial norm =       1      1 0.10000E+00 0.11420E+00
(PID.TID 0000.0001)  S/R SEAICE_KRYLOV: Picard iterate / total =      1 /      1, Nb. of FGMRES iterations =      1
(PID.TID 0000.0001)  S/R SEAICE_KRYLOV: Picard iterate / total, KRYLOVgamma_lin, initial norm =       2      2 0.50000E-01 0.19542E-03
(PID.TID 0000.0001)  S/R SEAICE_KRYLOV: Picard iterate / total =      2 /      2, Nb. of FGMRES iterations =      1
(PID.TID 0000.0001)  S/R SEAICE_KRYLOV: Picard iterate / total, KRYLOVgamma_lin, initial norm =       3      3 0.50000E-01 0.96561E-04
(PID.TID 0000.0001)  S/R SEAICE_KRYLOV: Picard iterate / total =      3 /      3, Nb. of FGMRES iterations =      1
(PID.TID 0000.0001)  S/R SEAICE_KRYLOV: Picard iterate / total, KRYLOVgamma_lin, initial norm =       4      4 0.33333E-01 0.48281E-04
(PID.TID 0000.0001)  S/R SEAICE_KRYLOV: Picard iterate / total =      4 /      4, Nb. of FGMRES iterations =      1
(PID.TID 0000.0001)  S/R SEAICE_KRYLOV: Picard iterate / total, KRYLOVgamma_lin, initial norm =       5      5 0.33333E-01 0.24141E-04
(PID.TID 0000.0001)  S/R SEAICE_KRYLOV: Picard iterate / total =      5 /      5, Nb. of FGMRES iterations =      1
(PID.TID 0000.0001)  S/R SEAICE_KRYLOV: Picard iterate / total, KRYLOVgamma_lin, initial norm =       6      6 0.33333E-01 0.12070E-04
(PID.TID 0000.0001)  S/R SEAICE_KRYLOV: Picard iterate / total =      6 /      6, Nb. of FGMRES iterations =      1
(PID.TID 0000.0001)  S/R SEAICE_KRYLOV: Picard iterate / total, KRYLOVgamma_lin, initial norm =       7      7 0.33333E-01 0.60352E-05
(PID.TID 0000.0001)  S/R SEAICE_KRYLOV: Picard iterate / total =      7 /      7, Nb. of FGMRES iterations =      1
(PID.TID 0000.0001)  S/R SEAICE_KRYLOV: Picard iterate / total, KRYLOVgamma_lin, initial norm =       8      8 0.25000E-01 0.30176E-05
(PID.TID 0000.0001)  S/R SEAICE_KRYLOV: Picard iterate / total =      8 /      8, Nb. of FGMRES iterations =      1
(PID.TID 0000.0001)  S/R SEAICE_KRYLOV: Picard iterate / total, KRYLOVgamma_lin, initial norm =       9      9 0.20000E-01 0.15088E-05
(PID.TID 0000.0001)  S/R SEAICE_KRYLOV: Picard iterate / total =      9 /      9, Nb. of FGMRES iterations =      1
(PID.TID 0000.0001)  S/R SEAICE_KRYLOV: Picard iterate / total, KRYLOVgamma_lin, initial norm =      10     10 0.12500E-01 0.75439E-06
(PID.TID 0000.0001)  S/R SEAICE_KRYLOV: Picard iterate / total =     10 /     10, Nb. of FGMRES iterations =      1
(PID.TID 0000.0001)  S/R SEAICE_KRYLOV: Picard iterate / total, KRYLOVgamma_lin, initial norm =      11     11 0.12500E-01 0.37720E-06
(PID.TID 0000.0001)  S/R SEAICE_KRYLOV: Picard iterate / total =     11 /     11, Nb. of FGMRES iterations =      1
(PID.TID 0000.0001)  S/R SEAICE_KRYLOV: Picard iterate / total, KRYLOVgamma_lin, initial norm =      12     12 0.12500E-01 0.18860E-06
(PID.TID 0000.0001)  S/R SEAICE_KRYLOV: Picard iterate / total =     12 /     12, Nb. of FGMRES iterations =      1
(PID.TID 0000.0001)  S/R SEAICE_KRYLOV: Picard iterate / total, KRYLOVgamma_lin, initial norm =      13     13 0.12500E-01 0.94299E-07
(PID.TID 0000.0001)  S/R SEAICE_KRYLOV: Picard iterate / total =     13 /     13, Nb. of FGMRES iterations =      1
(PID.TID 0000.0001)  S/R SEAICE_KRYLOV: Picard iterate / total, KRYLOVgamma_lin, initial norm =      14     14 0.12500E-01 0.47150E-07
(PID.TID 0000.0001)  S/R SEAICE_KRYLOV: Picard iterate / total =     14 /     14, Nb. of FGMRES iterations =      1
(PID.TID 0000.0001)  S/R SEAICE_KRYLOV: Picard iterate / total, KRYLOVgamma_lin, initial norm =      15     15 0.12500E-01 0.23575E-07
(PID.TID 0000.0001)  S/R SEAICE_KRYLOV: Picard iterate / total =     15 /     15, Nb. of FGMRES iterations =      1
(PID.TID 0000.0001)  S/R SEAICE_KRYLOV: Picard iterate / total, KRYLOVgamma_lin, initial norm =      16     16 0.12500E-01 0.11787E-07
(PID.TID 0000.0001)  S/R SEAICE_KRYLOV: Picard iterate / total =     16 /     16, Nb. of FGMRES iterations =      1
(PID.TID 0000.0001)  S/R SEAICE_KRYLOV: Picard iterate / total, KRYLOVgamma_lin, initial norm =      17     17 0.12500E-01 0.58937E-08
(PID.TID 0000.0001)  S/R SEAICE_KRYLOV: Picard iterate / total =     17 /     17, Nb. of FGMRES iterations =      1
(PID.TID 0000.0001)  S/R SEAICE_KRYLOV: Picard iterate / total, KRYLOVgamma_lin, initial norm =      18     18 0.12500E-01 0.29469E-08
(PID.TID 0000.0001)  S/R SEAICE_KRYLOV: Picard iterate / total =     18 /     18, Nb. of FGMRES iterations =      1
(PID.TID 0000.0001)  S/R SEAICE_KRYLOV: Picard iterate / total, KRYLOVgamma_lin, initial norm =      19     19 0.12500E-01 0.14734E-08
(PID.TID 0000.0001)  S/R SEAICE_KRYLOV: Picard iterate / total =     19 /     19, Nb. of FGMRES iterations =      1
(PID.TID 0000.0001)  S/R SEAICE_KRYLOV: Picard iterate / total, KRYLOVgamma_lin, initial norm =      20     20 0.12500E-01 0.73671E-09
(PID.TID 0000.0001)  S/R SEAICE_KRYLOV: Picard iterate / total =     20 /     20, Nb. of FGMRES iterations =      1
(PID.TID 0000.0001)  S/R SEAICE_KRYLOV: Picard iterate / total, KRYLOVgamma_lin, initial norm =      21     21 0.12500E-01 0.36836E-09
(PID.TID 0000.0001)  S/R SEAICE_KRYLOV: Picard iterate / total =     21 /     21, Nb. of FGMRES iterations =      1
(PID.TID 0000.0001)  S/R SEAICE_KRYLOV: Picard iterate / total, KRYLOVgamma_lin, initial norm =      22     22 0.12500E-01 0.18418E-09
(PID.TID 0000.0001)  S/R SEAICE_KRYLOV: Picard iterate / total =     22 /     22, Nb. of FGMRES iterations =      1
(PID.TID 0000.0001)  S/R SEAICE_KRYLOV: Picard iterate / total, KRYLOVgamma_lin, initial norm =      23     23 0.12500E-01 0.92089E-10
(PID.TID 0000.0001)  S/R SEAICE_KRYLOV: Picard iterate / total =     23 /     23, Nb. of FGMRES iterations =      1
(PID.TID 0000.0001)  S/R SEAICE_KRYLOV: Picard iterate / total, KRYLOVgamma_lin, initial norm =      24     24 0.12500E-01 0.46045E-10
(PID.TID 0000.0001)  S/R SEAICE_KRYLOV: Picard iterate / total =     24 /     24, Nb. of FGMRES iterations =      1
(PID.TID 0000.0001)  S/R SEAICE_KRYLOV: Picard iterate / total, KRYLOVgamma_lin, initial norm =      25     25 0.12500E-01 0.23022E-10
(PID.TID 0000.0001)  S/R SEAICE_KRYLOV: Picard iterate / total =     25 /     25, Nb. of FGMRES iterations =      1
(PID.TID 0000.0001)  S/R SEAICE_KRYLOV: Picard iterate / total, KRYLOVgamma_lin, initial norm =      26     26 0.12500E-01 0.11511E-10
(PID.TID 0000.0001)  S/R SEAICE_KRYLOV: Picard iterate / total =     26 /     26, Nb. of FGMRES iterations =      1
(PID.TID 0000.0001)  S/R SEAICE_KRYLOV: Picard iterate / total, KRYLOVgamma_lin, initial norm =      27     27 0.12500E-01 0.57556E-11
(PID.TID 0000.0001)  S/R SEAICE_KRYLOV: Picard iterate / total =     27 /     27, Nb. of FGMRES iterations =      1
(PID.TID 0000.0001)  S/R SEAICE_KRYLOV: Picard iterate / total, KRYLOVgamma_lin, initial norm =      28     28 0.12500E-01 0.28778E-11
(PID.TID 0000.0001)  S/R SEAICE_KRYLOV: Picard iterate / total =     28 /     28, Nb. of FGMRES iterations =      1
(PID.TID 0000.0001)  S/R SEAICE_KRYLOV: Picard iterate / total, KRYLOVgamma_lin, initial norm =      29     29 0.12500E-01 0.14389E-11
(PID.TID 0000.0001)  S/R SEAICE_KRYLOV: Picard iterate / total =     29 /     29, Nb. of FGMRES iterations =      1
(PID.TID 0000.0001)  S/R SEAICE_KRYLOV: Picard iterate / total, KRYLOVgamma_lin, initial norm =      30     30 0.12500E-01 0.71945E-12
(PID.TID 0000.0001)  S/R SEAICE_KRYLOV: Picard iterate / total =     30 /     30, Nb. of FGMRES iterations =      1
(PID.TID 0000.0001)  S/R SEAICE_KRYLOV: Picard iterate / total, KRYLOVgamma_lin, initial norm =      31     31 0.12500E-01 0.35972E-12
(PID.TID 0000.0001)  S/R SEAICE_KRYLOV: Picard iterate / total =     31 /     31, Nb. of FGMRES iterations =      1
(PID.TID 0000.0001)  S/R SEAICE_KRYLOV: Picard iterate / total, KRYLOVgamma_lin, initial norm =      32     32 0.12500E-01 0.17986E-12
(PID.TID 0000.0001)  S/R SEAICE_KRYLOV: Picard iterate / total =     32 /     32, Nb. of FGMRES iterations =      1
(PID.TID 0000.0001)  S/R SEAICE_KRYLOV: Picard iterate / total, KRYLOVgamma_lin, final   norm =      33     33 0.12500E-01 0.89931E-13
(PID.TID 0000.0001)  // =======================================================
(PID.TID 0000.0001)  // Begin KRYLOV statistics
(PID.TID 0000.0001)  // =======================================================
(PID.TID 0000.0001)  %KRYLOV_MON: time step              =          1
(PID.TID 0000.0001)  %KRYLOV_MON: Nb. of time steps      =          1
(PID.TID 0000.0001)  %KRYLOV_MON: Nb. of Picard steps    =         33
(PID.TID 0000.0001)  %KRYLOV_MON: Nb. of Krylov steps    =         32
(PID.TID 0000.0001)  %KRYLOV_MON: Nb. of Picard failures =          0
(PID.TID 0000.0001)  %KRYLOV_MON: Nb. of Krylov failures =          0
(PID.TID 0000.0001)  // =======================================================
(PID.TID 0000.0001)  // End KRYLOV statistics
(PID.TID 0000.0001)  // =======================================================
(PID.TID 0000.0001)  S/R SEAICE_KRYLOV: Total number FGMRES iterations =     32 in timestep          1
(PID.TID 0000.0001) // =======================================================
(PID.TID 0000.0001) // Begin MONITOR dynamic field statistics
(PID.TID 0000.0001) // =======================================================
(PID.TID 0000.0001) %MON time_tsnumber                =                     1
(PID.TID 0000.0001) %MON time_secondsf                =   2.5000000000000E+00
(PID.TID 0000.0001) %MON dynstat_eta_max              =   0.0000000000000E+00
(PID.TID 0000.0001) %MON dynstat_eta_min              =   0.0000000000000E+00
(PID.TID 0000.0001) %MON dynstat_eta_mean             =   0.0000000000000E+00
(PID.TID 0000.0001) %MON dynstat_eta_sd               =   0.0000000000000E+00
(PID.TID 0000.0001) %MON dynstat_eta_del2             =   0.0000000000000E+00
(PID.TID 0000.0001) %MON dynstat_uvel_max             =   9.8437500000000E-03
(PID.TID 0000.0001) %MON dynstat_uvel_min             =  -9.8437500000000E-03
(PID.TID 0000.0001) %MON dynstat_uvel_mean            =   0.0000000000000E+00
(PID.TID 0000.0001) %MON dynstat_uvel_sd              =   5.7727978755972E-03
(PID.TID 0000.0001) %MON dynstat_uvel_del2            =   1.0089048364799E-20
(PID.TID 0000.0001) %MON dynstat_vvel_max             =   9.8437500000000E-03
(PID.TID 0000.0001) %MON dynstat_vvel_min             =  -9.8437500000000E-03
(PID.TID 0000.0001) %MON dynstat_vvel_mean            =   0.0000000000000E+00
(PID.TID 0000.0001) %MON dynstat_vvel_sd              =   5.7727978755972E-03
(PID.TID 0000.0001) %MON dynstat_vvel_del2            =   1.0089048364799E-20
(PID.TID 0000.0001) %MON dynstat_wvel_max             =   1.1914062500000E-05
(PID.TID 0000.0001) %MON dynstat_wvel_min             =  -1.1914062500000E-05
(PID.TID 0000.0001) %MON dynstat_wvel_mean            =   3.4694469519536E-25
(PID.TID 0000.0001) %MON dynstat_wvel_sd              =   1.7200872247780E-06
(PID.TID 0000.0001) %MON dynstat_wvel_del2            =   2.8187489626940E-08
(PID.TID 0000.0001) %MON dynstat_theta_max            =  -1.6200000000000E+00
(PID.TID 0000.0001) %MON dynstat_theta_min            =  -1.6200000000000E+00
(PID.TID 0000.0001) %MON dynstat_theta_mean           =  -1.6200000000000E+00
(PID.TID 0000.0001) %MON dynstat_theta_sd             =   0.0000000000000E+00
(PID.TID 0000.0001) %MON dynstat_theta_del2           =   0.0000000000000E+00
(PID.TID 0000.0001) %MON dynstat_salt_max             =   3.0000000000000E+01
(PID.TID 0000.0001) %MON dynstat_salt_min             =   3.0000000000000E+01
(PID.TID 0000.0001) %MON dynstat_salt_mean            =   3.0000000000000E+01
(PID.TID 0000.0001) %MON dynstat_salt_sd              =   0.0000000000000E+00
(PID.TID 0000.0001) %MON dynstat_salt_del2            =   0.0000000000000E+00
(PID.TID 0000.0001) %MON trAdv_CFL_u_max              =   3.0761718750000E-06
(PID.TID 0000.0001) %MON trAdv_CFL_v_max              =   3.0761718750000E-06
(PID.TID 0000.0001) %MON trAdv_CFL_w_max              =   2.9785156250000E-06
(PID.TID 0000.0001) %MON advcfl_uvel_max              =   3.0761718750000E-06
(PID.TID 0000.0001) %MON advcfl_vvel_max              =   3.0761718750000E-06
(PID.TID 0000.0001) %MON advcfl_wvel_max              =   5.9570312500000E-06
(PID.TID 0000.0001) %MON advcfl_W_hf_max              =   0.0000000000000E+00
(PID.TID 0000.0001) %MON pe_b_mean                    =   0.0000000000000E+00
(PID.TID 0000.0001) %MON ke_max                       =   9.0844726562500E-05
(PID.TID 0000.0001) %MON ke_mean                      =   3.2804489135742E-05
(PID.TID 0000.0001) %MON ke_vol                       =   2.6214400000000E+12
(PID.TID 0000.0001) %MON vort_r_min                   =  -7.8125000000000E-08
(PID.TID 0000.0001) %MON vort_r_max                   =   1.2304687500000E-06
(PID.TID 0000.0001) %MON vort_a_mean                  =   1.4856000000000E-04
(PID.TID 0000.0001) %MON vort_a_sd                    =   1.5312918562496E-06
(PID.TID 0000.0001) %MON vort_p_mean                  =   1.5552375000000E-04
(PID.TID 0000.0001) %MON vort_p_sd                    =   5.5921473110222E-05
(PID.TID 0000.0001) %MON surfExpan_theta_mean         =   0.0000000000000E+00
(PID.TID 0000.0001) %MON surfExpan_salt_mean          =   1.3877787807814E-23
(PID.TID 0000.0001) // =======================================================
(PID.TID 0000.0001) // End MONITOR dynamic field statistics
(PID.TID 0000.0001) // =======================================================
(PID.TID 0000.0001) // =======================================================
(PID.TID 0000.0001) // Begin MONITOR SEAICE statistics
(PID.TID 0000.0001) // =======================================================
(PID.TID 0000.0001) %MON seaice_tsnumber              =                     1
(PID.TID 0000.0001) %MON seaice_time_sec              =   2.5000000000000E+00
(PID.TID 0000.0001) %MON seaice_uice_max              =   1.7542640102750E-03
(PID.TID 0000.0001) %MON seaice_uice_min              =  -1.7969956199743E-03
(PID.TID 0000.0001) %MON seaice_uice_mean             =  -4.6763699212398E-08
(PID.TID 0000.0001) %MON seaice_uice_sd               =   7.5487939948445E-04
(PID.TID 0000.0001) %MON seaice_uice_del2             =   1.6922143286586E-07
(PID.TID 0000.0001) %MON seaice_vice_max              =   1.7111243523858E-03
(PID.TID 0000.0001) %MON seaice_vice_min              =  -1.7344359772174E-03
(PID.TID 0000.0001) %MON seaice_vice_mean             =   1.9512441866225E-07
(PID.TID 0000.0001) %MON seaice_vice_sd               =   7.5114009728235E-04
(PID.TID 0000.0001) %MON seaice_vice_del2             =   1.6786619984667E-07
(PID.TID 0000.0001) %MON seaice_area_max              =   1.0000000000000E+00
(PID.TID 0000.0001) %MON seaice_area_min              =   9.9999992127119E-01
(PID.TID 0000.0001) %MON seaice_area_mean             =   9.9999999570750E-01
(PID.TID 0000.0001) %MON seaice_area_sd               =   1.0789794550568E-08
(PID.TID 0000.0001) %MON seaice_area_del2             =   1.5121813730446E-10
(PID.TID 0000.0001) %MON seaice_heff_max              =   3.0999867197300E-01
(PID.TID 0000.0001) %MON seaice_heff_min              =   2.9006056493844E-01
(PID.TID 0000.0001) %MON seaice_heff_mean             =   3.0067126525963E-01
(PID.TID 0000.0001) %MON seaice_heff_sd               =   5.0069224096608E-03
(PID.TID 0000.0001) %MON seaice_heff_del2             =   1.2853747819574E-05
(PID.TID 0000.0001) %MON seaice_hsnow_max             =   0.0000000000000E+00
(PID.TID 0000.0001) %MON seaice_hsnow_min             =   0.0000000000000E+00
(PID.TID 0000.0001) %MON seaice_hsnow_mean            =   0.0000000000000E+00
(PID.TID 0000.0001) %MON seaice_hsnow_sd              =   0.0000000000000E+00
(PID.TID 0000.0001) %MON seaice_hsnow_del2            =   0.0000000000000E+00
(PID.TID 0000.0001) // =======================================================
(PID.TID 0000.0001) // End MONITOR SEAICE statistics
(PID.TID 0000.0001) // =======================================================
 Computing Diagnostic #    163  SIuice       Counter:       1   Parms: UU      M1      
           Vector  Mate for  SIuice       Diagnostic #    164  SIvice   exists 
 Computing Diagnostic #    164  SIvice       Counter:       1   Parms: VV      M1      
           Vector  Mate for  SIvice       Diagnostic #    163  SIuice   exists 
 Computing Diagnostic #    149  SIheff       Counter:       1   Parms: SM      M1      
 Computing Diagnostic #    146  SIarea       Counter:       1   Parms: SM      M1      
 Computing Diagnostic #    228  SIshear      Counter:       1   Parms: SM      M1      
 Computing Diagnostic #    233  SIcohes      Counter:       1   Parms: SM      M1      
 Computing Diagnostic #    221  SIsig1       Counter:       1   Parms: SM      M1      
 Computing Diagnostic #    222  SIsig2       Counter:       1   Parms: SM      M1      
 Computing Diagnostic #    231  SIdamage     Counter:       1   Parms: SM      M1      
 Computing Diagnostic #    165  SItaux       Counter:       1   Parms: UU      U1      
           Vector  Mate for  SItaux       Diagnostic #    166  SItauy   exists 
 Computing Diagnostic #    166  SItauy       Counter:       1   Parms: VV      U1      
           Vector  Mate for  SItauy       Diagnostic #    165  SItaux   exists 
 Computing Diagnostic #    133  EXFuwind     Counter:       1   Parms: UM      U1      
 Computing Diagnostic #    134  EXFvwind     Counter:       1   Parms: VM      U1      
(PID.TID 0000.0001)  S/R SEAICE_KRYLOV: Picard iterate / total, KRYLOVgamma_lin, initial norm =       1    101 0.10000E+00 0.11381E+00
(PID.TID 0000.0001)  S/R SEAICE_KRYLOV: Picard iterate / total =      1 /    101, Nb. of FGMRES iterations =      1
(PID.TID 0000.0001)  S/R SEAICE_KRYLOV: Picard iterate / total, KRYLOVgamma_lin, initial norm =       2    102 0.50000E-01 0.16949E-03
(PID.TID 0000.0001)  S/R SEAICE_KRYLOV: Picard iterate / total =      2 /    102, Nb. of FGMRES iterations =      1
(PID.TID 0000.0001)  S/R SEAICE_KRYLOV: Picard iterate / total, KRYLOVgamma_lin, initial norm =       3    103 0.50000E-01 0.83383E-04
(PID.TID 0000.0001)  S/R SEAICE_KRYLOV: Picard iterate / total =      3 /    103, Nb. of FGMRES iterations =      1
(PID.TID 0000.0001)  S/R SEAICE_KRYLOV: Picard iterate / total, KRYLOVgamma_lin, initial norm =       4    104 0.33333E-01 0.41693E-04
(PID.TID 0000.0001)  S/R SEAICE_KRYLOV: Picard iterate / total =      4 /    104, Nb. of FGMRES iterations =      1
(PID.TID 0000.0001)  S/R SEAICE_KRYLOV: Picard iterate / total, KRYLOVgamma_lin, initial norm =       5    105 0.33333E-01 0.20846E-04
(PID.TID 0000.0001)  S/R SEAICE_KRYLOV: Picard iterate / total =      5 /    105, Nb. of FGMRES iterations =      1
(PID.TID 0000.0001)  S/R SEAICE_KRYLOV: Picard iterate / total, KRYLOVgamma_lin, initial norm =       6    106 0.33333E-01 0.10423E-04
(PID.TID 0000.0001)  S/R SEAICE_KRYLOV: Picard iterate / total =      6 /    106, Nb. of FGMRES iterations =      1
(PID.TID 0000.0001)  S/R SEAICE_KRYLOV: Picard iterate / total, KRYLOVgamma_lin, initial norm =       7    107 0.33333E-01 0.52116E-05
(PID.TID 0000.0001)  S/R SEAICE_KRYLOV: Picard iterate / total =      7 /    107, Nb. of FGMRES iterations =      1
(PID.TID 0000.0001)  S/R SEAICE_KRYLOV: Picard iterate / total, KRYLOVgamma_lin, initial norm =       8    108 0.25000E-01 0.26058E-05
(PID.TID 0000.0001)  S/R SEAICE_KRYLOV: Picard iterate / total =      8 /    108, Nb. of FGMRES iterations =      1
(PID.TID 0000.0001)  S/R SEAICE_KRYLOV: Picard iterate / total, KRYLOVgamma_lin, initial norm =       9    109 0.20000E-01 0.13029E-05
(PID.TID 0000.0001)  S/R SEAICE_KRYLOV: Picard iterate / total =      9 /    109, Nb. of FGMRES iterations =      1
(PID.TID 0000.0001)  S/R SEAICE_KRYLOV: Picard iterate / total, KRYLOVgamma_lin, initial norm =      10    110 0.12500E-01 0.65145E-06
(PID.TID 0000.0001)  S/R SEAICE_KRYLOV: Picard iterate / total =     10 /    110, Nb. of FGMRES iterations =      1
(PID.TID 0000.0001)  S/R SEAICE_KRYLOV: Picard iterate / total, KRYLOVgamma_lin, initial norm =      11    111 0.12500E-01 0.32572E-06
(PID.TID 0000.0001)  S/R SEAICE_KRYLOV: Picard iterate / total =     11 /    111, Nb. of FGMRES iterations =      1
(PID.TID 0000.0001)  S/R SEAICE_KRYLOV: Picard iterate / total, KRYLOVgamma_lin, initial norm =      12    112 0.12500E-01 0.16286E-06
(PID.TID 0000.0001)  S/R SEAICE_KRYLOV: Picard iterate / total =     12 /    112, Nb. of FGMRES iterations =      1
(PID.TID 0000.0001)  S/R SEAICE_KRYLOV: Picard iterate / total, KRYLOVgamma_lin, initial norm =      13    113 0.12500E-01 0.81431E-07
(PID.TID 0000.0001)  S/R SEAICE_KRYLOV: Picard iterate / total =     13 /    113, Nb. of FGMRES iterations =      1
(PID.TID 0000.0001)  S/R SEAICE_KRYLOV: Picard iterate / total, KRYLOVgamma_lin, initial norm =      14    114 0.12500E-01 0.40715E-07
(PID.TID 0000.0001)  S/R SEAICE_KRYLOV: Picard iterate / total =     14 /    114, Nb. of FGMRES iterations =      1
(PID.TID 0000.0001)  S/R SEAICE_KRYLOV: Picard iterate / total, KRYLOVgamma_lin, initial norm =      15    115 0.12500E-01 0.20358E-07
(PID.TID 0000.0001)  S/R SEAICE_KRYLOV: Picard iterate / total =     15 /    115, Nb. of FGMRES iterations =      1
(PID.TID 0000.0001)  S/R SEAICE_KRYLOV: Picard iterate / total, KRYLOVgamma_lin, initial norm =      16    116 0.12500E-01 0.10179E-07
(PID.TID 0000.0001)  S/R SEAICE_KRYLOV: Picard iterate / total =     16 /    116, Nb. of FGMRES iterations =      1
(PID.TID 0000.0001)  S/R SEAICE_KRYLOV: Picard iterate / total, KRYLOVgamma_lin, initial norm =      17    117 0.12500E-01 0.50894E-08
(PID.TID 0000.0001)  S/R SEAICE_KRYLOV: Picard iterate / total =     17 /    117, Nb. of FGMRES iterations =      1
(PID.TID 0000.0001)  S/R SEAICE_KRYLOV: Picard iterate / total, KRYLOVgamma_lin, initial norm =      18    118 0.12500E-01 0.25447E-08
(PID.TID 0000.0001)  S/R SEAICE_KRYLOV: Picard iterate / total =     18 /    118, Nb. of FGMRES iterations =      1
(PID.TID 0000.0001)  S/R SEAICE_KRYLOV: Picard iterate / total, KRYLOVgamma_lin, initial norm =      19    119 0.12500E-01 0.12724E-08
(PID.TID 0000.0001)  S/R SEAICE_KRYLOV: Picard iterate / total =     19 /    119, Nb. of FGMRES iterations =      1
(PID.TID 0000.0001)  S/R SEAICE_KRYLOV: Picard iterate / total, KRYLOVgamma_lin, initial norm =      20    120 0.12500E-01 0.63618E-09
(PID.TID 0000.0001)  S/R SEAICE_KRYLOV: Picard iterate / total =     20 /    120, Nb. of FGMRES iterations =      1
(PID.TID 0000.0001)  S/R SEAICE_KRYLOV: Picard iterate / total, KRYLOVgamma_lin, initial norm =      21    121 0.12500E-01 0.31809E-09
(PID.TID 0000.0001)  S/R SEAICE_KRYLOV: Picard iterate / total =     21 /    121, Nb. of FGMRES iterations =      1
(PID.TID 0000.0001)  S/R SEAICE_KRYLOV: Picard iterate / total, KRYLOVgamma_lin, initial norm =      22    122 0.12500E-01 0.15904E-09
(PID.TID 0000.0001)  S/R SEAICE_KRYLOV: Picard iterate / total =     22 /    122, Nb. of FGMRES iterations =      1
(PID.TID 0000.0001)  S/R SEAICE_KRYLOV: Picard iterate / total, KRYLOVgamma_lin, initial norm =      23    123 0.12500E-01 0.79522E-10
(PID.TID 0000.0001)  S/R SEAICE_KRYLOV: Picard iterate / total =     23 /    123, Nb. of FGMRES iterations =      1
(PID.TID 0000.0001)  S/R SEAICE_KRYLOV: Picard iterate / total, KRYLOVgamma_lin, initial norm =      24    124 0.12500E-01 0.39761E-10
(PID.TID 0000.0001)  S/R SEAICE_KRYLOV: Picard iterate / total =     24 /    124, Nb. of FGMRES iterations =      1
(PID.TID 0000.0001)  S/R SEAICE_KRYLOV: Picard iterate / total, KRYLOVgamma_lin, initial norm =      25    125 0.12500E-01 0.19881E-10
(PID.TID 0000.0001)  S/R SEAICE_KRYLOV: Picard iterate / total =     25 /    125, Nb. of FGMRES iterations =      1
(PID.TID 0000.0001)  S/R SEAICE_KRYLOV: Picard iterate / total, KRYLOVgamma_lin, initial norm =      26    126 0.12500E-01 0.99403E-11
(PID.TID 0000.0001)  S/R SEAICE_KRYLOV: Picard iterate / total =     26 /    126, Nb. of FGMRES iterations =      1
(PID.TID 0000.0001)  S/R SEAICE_KRYLOV: Picard iterate / total, KRYLOVgamma_lin, initial norm =      27    127 0.12500E-01 0.49701E-11
(PID.TID 0000.0001)  S/R SEAICE_KRYLOV: Picard iterate / total =     27 /    127, Nb. of FGMRES iterations =      1
(PID.TID 0000.0001)  S/R SEAICE_KRYLOV: Picard iterate / total, KRYLOVgamma_lin, initial norm =      28    128 0.12500E-01 0.24851E-11
(PID.TID 0000.0001)  S/R SEAICE_KRYLOV: Picard iterate / total =     28 /    128, Nb. of FGMRES iterations =      1
(PID.TID 0000.0001)  S/R SEAICE_KRYLOV: Picard iterate / total, KRYLOVgamma_lin, initial norm =      29    129 0.12500E-01 0.12425E-11
(PID.TID 0000.0001)  S/R SEAICE_KRYLOV: Picard iterate / total =     29 /    129, Nb. of FGMRES iterations =      1
(PID.TID 0000.0001)  S/R SEAICE_KRYLOV: Picard iterate / total, KRYLOVgamma_lin, initial norm =      30    130 0.12500E-01 0.62127E-12
(PID.TID 0000.0001)  S/R SEAICE_KRYLOV: Picard iterate / total =     30 /    130, Nb. of FGMRES iterations =      1
(PID.TID 0000.0001)  S/R SEAICE_KRYLOV: Picard iterate / total, KRYLOVgamma_lin, initial norm =      31    131 0.12500E-01 0.31063E-12
(PID.TID 0000.0001)  S/R SEAICE_KRYLOV: Picard iterate / total =     31 /    131, Nb. of FGMRES iterations =      1
(PID.TID 0000.0001)  S/R SEAICE_KRYLOV: Picard iterate / total, KRYLOVgamma_lin, initial norm =      32    132 0.12500E-01 0.15532E-12
(PID.TID 0000.0001)  S/R SEAICE_KRYLOV: Picard iterate / total =     32 /    132, Nb. of FGMRES iterations =      1
(PID.TID 0000.0001)  S/R SEAICE_KRYLOV: Picard iterate / total, KRYLOVgamma_lin, final   norm =      33    133 0.12500E-01 0.77658E-13
(PID.TID 0000.0001)  // =======================================================
(PID.TID 0000.0001)  // Begin KRYLOV statistics
(PID.TID 0000.0001)  // =======================================================
(PID.TID 0000.0001)  %KRYLOV_MON: time step              =          2
(PID.TID 0000.0001)  %KRYLOV_MON: Nb. of time steps      =          1
(PID.TID 0000.0001)  %KRYLOV_MON: Nb. of Picard steps    =         33
(PID.TID 0000.0001)  %KRYLOV_MON: Nb. of Krylov steps    =         32
(PID.TID 0000.0001)  %KRYLOV_MON: Nb. of Picard failures =          0
(PID.TID 0000.0001)  %KRYLOV_MON: Nb. of Krylov failures =          0
(PID.TID 0000.0001)  // =======================================================
(PID.TID 0000.0001)  // End KRYLOV statistics
(PID.TID 0000.0001)  // =======================================================
(PID.TID 0000.0001)  S/R SEAICE_KRYLOV: Total number FGMRES iterations =     32 in timestep          2
(PID.TID 0000.0001) // =======================================================
(PID.TID 0000.0001) // Begin MONITOR dynamic field statistics
(PID.TID 0000.0001) // =======================================================
(PID.TID 0000.0001) %MON time_tsnumber                =                     2
(PID.TID 0000.0001) %MON time_secondsf                =   5.0000000000000E+00
(PID.TID 0000.0001) %MON dynstat_eta_max              =   0.0000000000000E+00
(PID.TID 0000.0001) %MON dynstat_eta_min              =   0.0000000000000E+00
(PID.TID 0000.0001) %MON dynstat_eta_mean             =   0.0000000000000E+00
(PID.TID 0000.0001) %MON dynstat_eta_sd               =   0.0000000000000E+00
(PID.TID 0000.0001) %MON dynstat_eta_del2             =   0.0000000000000E+00
(PID.TID 0000.0001) %MON dynstat_uvel_max             =   9.8437500000000E-03
(PID.TID 0000.0001) %MON dynstat_uvel_min             =  -9.8437500000000E-03
(PID.TID 0000.0001) %MON dynstat_uvel_mean            =   0.0000000000000E+00
(PID.TID 0000.0001) %MON dynstat_uvel_sd              =   5.7727978755972E-03
(PID.TID 0000.0001) %MON dynstat_uvel_del2            =   1.0089048364799E-20
(PID.TID 0000.0001) %MON dynstat_vvel_max             =   9.8437500000000E-03
(PID.TID 0000.0001) %MON dynstat_vvel_min             =  -9.8437500000000E-03
(PID.TID 0000.0001) %MON dynstat_vvel_mean            =   0.0000000000000E+00
(PID.TID 0000.0001) %MON dynstat_vvel_sd              =   5.7727978755972E-03
(PID.TID 0000.0001) %MON dynstat_vvel_del2            =   1.0089048364799E-20
(PID.TID 0000.0001) %MON dynstat_wvel_max             =   1.1914062500000E-05
(PID.TID 0000.0001) %MON dynstat_wvel_min             =  -1.1914062500000E-05
(PID.TID 0000.0001) %MON dynstat_wvel_mean            =   3.4694469519536E-25
(PID.TID 0000.0001) %MON dynstat_wvel_sd              =   1.7200872247780E-06
(PID.TID 0000.0001) %MON dynstat_wvel_del2            =   2.8187489626940E-08
(PID.TID 0000.0001) %MON dynstat_theta_max            =  -1.6200000000000E+00
(PID.TID 0000.0001) %MON dynstat_theta_min            =  -1.6200000000000E+00
(PID.TID 0000.0001) %MON dynstat_theta_mean           =  -1.6200000000000E+00
(PID.TID 0000.0001) %MON dynstat_theta_sd             =   0.0000000000000E+00
(PID.TID 0000.0001) %MON dynstat_theta_del2           =   0.0000000000000E+00
(PID.TID 0000.0001) %MON dynstat_salt_max             =   3.0000000000000E+01
(PID.TID 0000.0001) %MON dynstat_salt_min             =   3.0000000000000E+01
(PID.TID 0000.0001) %MON dynstat_salt_mean            =   3.0000000000000E+01
(PID.TID 0000.0001) %MON dynstat_salt_sd              =   0.0000000000000E+00
(PID.TID 0000.0001) %MON dynstat_salt_del2            =   0.0000000000000E+00
(PID.TID 0000.0001) %MON trAdv_CFL_u_max              =   3.0761718750000E-06
(PID.TID 0000.0001) %MON trAdv_CFL_v_max              =   3.0761718750000E-06
(PID.TID 0000.0001) %MON trAdv_CFL_w_max              =   2.9785156250000E-06
(PID.TID 0000.0001) %MON advcfl_uvel_max              =   3.0761718750000E-06
(PID.TID 0000.0001) %MON advcfl_vvel_max              =   3.0761718750000E-06
(PID.TID 0000.0001) %MON advcfl_wvel_max              =   5.9570312500000E-06
(PID.TID 0000.0001) %MON advcfl_W_hf_max              =   0.0000000000000E+00
(PID.TID 0000.0001) %MON pe_b_mean                    =   0.0000000000000E+00
(PID.TID 0000.0001) %MON ke_max                       =   9.0844726562500E-05
(PID.TID 0000.0001) %MON ke_mean                      =   3.2804489135742E-05
(PID.TID 0000.0001) %MON ke_vol                       =   2.6214400000000E+12
(PID.TID 0000.0001) %MON vort_r_min                   =  -7.8125000000000E-08
(PID.TID 0000.0001) %MON vort_r_max                   =   1.2304687500000E-06
(PID.TID 0000.0001) %MON vort_a_mean                  =   1.4856000000000E-04
(PID.TID 0000.0001) %MON vort_a_sd                    =   1.5312918562496E-06
(PID.TID 0000.0001) %MON vort_p_mean                  =   1.5552375000000E-04
(PID.TID 0000.0001) %MON vort_p_sd                    =   5.5921473110222E-05
(PID.TID 0000.0001) %MON surfExpan_theta_mean         =   0.0000000000000E+00
(PID.TID 0000.0001) %MON surfExpan_salt_mean          =   1.3877787807814E-23
(PID.TID 0000.0001) // =======================================================
(PID.TID 0000.0001) // End MONITOR dynamic field statistics
(PID.TID 0000.0001) // =======================================================
(PID.TID 0000.0001) // =======================================================
(PID.TID 0000.0001) // Begin MONITOR SEAICE statistics
(PID.TID 0000.0001) // =======================================================
(PID.TID 0000.0001) %MON seaice_tsnumber              =                     2
(PID.TID 0000.0001) %MON seaice_time_sec              =   5.0000000000000E+00
(PID.TID 0000.0001) %MON seaice_uice_max              =   3.5028826258264E-03
(PID.TID 0000.0001) %MON seaice_uice_min              =  -3.5870811086178E-03
(PID.TID 0000.0001) %MON seaice_uice_mean             =  -8.9078162603743E-08
(PID.TID 0000.0001) %MON seaice_uice_sd               =   1.5071903862936E-03
(PID.TID 0000.0001) %MON seaice_uice_del2             =   3.5374928115054E-07
(PID.TID 0000.0001) %MON seaice_vice_max              =   3.4170747231244E-03
(PID.TID 0000.0001) %MON seaice_vice_min              =  -3.4632335844614E-03
(PID.TID 0000.0001) %MON seaice_vice_mean             =   3.8335259650856E-07
(PID.TID 0000.0001) %MON seaice_vice_sd               =   1.4997362896450E-03
(PID.TID 0000.0001) %MON seaice_vice_del2             =   3.5161112152794E-07
(PID.TID 0000.0001) %MON seaice_area_max              =   1.0000000000000E+00
(PID.TID 0000.0001) %MON seaice_area_min              =   9.9999977126199E-01
(PID.TID 0000.0001) %MON seaice_area_mean             =   9.9999998716397E-01
(PID.TID 0000.0001) %MON seaice_area_sd               =   3.1381343317621E-08
(PID.TID 0000.0001) %MON seaice_area_del2             =   4.0939395005834E-10
(PID.TID 0000.0001) %MON seaice_heff_max              =   3.0999866972138E-01
(PID.TID 0000.0001) %MON seaice_heff_min              =   2.9006056257448E-01
(PID.TID 0000.0001) %MON seaice_heff_mean             =   3.0067126525963E-01
(PID.TID 0000.0001) %MON seaice_heff_sd               =   5.0069224988738E-03
(PID.TID 0000.0001) %MON seaice_heff_del2             =   1.2853747629622E-05
(PID.TID 0000.0001) %MON seaice_hsnow_max             =   0.0000000000000E+00
(PID.TID 0000.0001) %MON seaice_hsnow_min             =   0.0000000000000E+00
(PID.TID 0000.0001) %MON seaice_hsnow_mean            =   0.0000000000000E+00
(PID.TID 0000.0001) %MON seaice_hsnow_sd              =   0.0000000000000E+00
(PID.TID 0000.0001) %MON seaice_hsnow_del2            =   0.0000000000000E+00
(PID.TID 0000.0001) // =======================================================
(PID.TID 0000.0001) // End MONITOR SEAICE statistics
(PID.TID 0000.0001) // =======================================================
 Computing Diagnostic #    163  SIuice       Counter:       1   Parms: UU      M1      
           Vector  Mate for  SIuice       Diagnostic #    164  SIvice   exists 
 Computing Diagnostic #    164  SIvice       Counter:       1   Parms: VV      M1      
           Vector  Mate for  SIvice       Diagnostic #    163  SIuice   exists 
 Computing Diagnostic #    149  SIheff       Counter:       1   Parms: SM      M1      
 Computing Diagnostic #    146  SIarea       Counter:       1   Parms: SM      M1      
 Computing Diagnostic #    228  SIshear      Counter:       1   Parms: SM      M1      
 Computing Diagnostic #    233  SIcohes      Counter:       1   Parms: SM      M1      
 Computing Diagnostic #    221  SIsig1       Counter:       1   Parms: SM      M1      
 Computing Diagnostic #    222  SIsig2       Counter:       1   Parms: SM      M1      
 Computing Diagnostic #    231  SIdamage     Counter:       1   Parms: SM      M1      
 Computing Diagnostic #    165  SItaux       Counter:       1   Parms: UU      U1      
           Vector  Mate for  SItaux       Diagnostic #    166  SItauy   exists 
 Computing Diagnostic #    166  SItauy       Counter:       1   Parms: VV      U1      
           Vector  Mate for  SItauy       Diagnostic #    165  SItaux   exists 
 Computing Diagnostic #    133  EXFuwind     Counter:       1   Parms: UM      U1      
 Computing Diagnostic #    134  EXFvwind     Counter:       1   Parms: VM      U1      
(PID.TID 0000.0001)  S/R SEAICE_KRYLOV: Picard iterate / total, KRYLOVgamma_lin, initial norm =       1    201 0.10000E+00 0.11337E+00
(PID.TID 0000.0001)  S/R SEAICE_KRYLOV: Picard iterate / total =      1 /    201, Nb. of FGMRES iterations =      1
(PID.TID 0000.0001)  S/R SEAICE_KRYLOV: Picard iterate / total, KRYLOVgamma_lin, initial norm =       2    202 0.50000E-01 0.18797E-03
(PID.TID 0000.0001)  S/R SEAICE_KRYLOV: Picard iterate / total =      2 /    202, Nb. of FGMRES iterations =      1
(PID.TID 0000.0001)  S/R SEAICE_KRYLOV: Picard iterate / total, KRYLOVgamma_lin, initial norm =       3    203 0.50000E-01 0.59304E-04
(PID.TID 0000.0001)  S/R SEAICE_KRYLOV: Picard iterate / total =      3 /    203, Nb. of FGMRES iterations =      1
(PID.TID 0000.0001)  S/R SEAICE_KRYLOV: Picard iterate / total, KRYLOVgamma_lin, initial norm =       4    204 0.33333E-01 0.33105E-04
(PID.TID 0000.0001)  S/R SEAICE_KRYLOV: Picard iterate / total =      4 /    204, Nb. of FGMRES iterations =      1
(PID.TID 0000.0001)  S/R SEAICE_KRYLOV: Picard iterate / total, KRYLOVgamma_lin, initial norm =       5    205 0.33333E-01 0.16135E-04
(PID.TID 0000.0001)  S/R SEAICE_KRYLOV: Picard iterate / total =      5 /    205, Nb. of FGMRES iterations =      1
(PID.TID 0000.0001)  S/R SEAICE_KRYLOV: Picard iterate / total, KRYLOVgamma_lin, initial norm =       6    206 0.33333E-01 0.81160E-05
(PID.TID 0000.0001)  S/R SEAICE_KRYLOV: Picard iterate / total =      6 /    206, Nb. of FGMRES iterations =      1
(PID.TID 0000.0001)  S/R SEAICE_KRYLOV: Picard iterate / total, KRYLOVgamma_lin, initial norm =       7    207 0.33333E-01 0.40523E-05
(PID.TID 0000.0001)  S/R SEAICE_KRYLOV: Picard iterate / total =      7 /    207, Nb. of FGMRES iterations =      1
(PID.TID 0000.0001)  S/R SEAICE_KRYLOV: Picard iterate / total, KRYLOVgamma_lin, initial norm =       8    208 0.25000E-01 0.20268E-05
(PID.TID 0000.0001)  S/R SEAICE_KRYLOV: Picard iterate / total =      8 /    208, Nb. of FGMRES iterations =      1
(PID.TID 0000.0001)  S/R SEAICE_KRYLOV: Picard iterate / total, KRYLOVgamma_lin, initial norm =       9    209 0.20000E-01 0.10133E-05
(PID.TID 0000.0001)  S/R SEAICE_KRYLOV: Picard iterate / total =      9 /    209, Nb. of FGMRES iterations =      1
(PID.TID 0000.0001)  S/R SEAICE_KRYLOV: Picard iterate / total, KRYLOVgamma_lin, initial norm =      10    210 0.12500E-01 0.50667E-06
(PID.TID 0000.0001)  S/R SEAICE_KRYLOV: Picard iterate / total =     10 /    210, Nb. of FGMRES iterations =      1
(PID.TID 0000.0001)  S/R SEAICE_KRYLOV: Picard iterate / total, KRYLOVgamma_lin, initial norm =      11    211 0.12500E-01 0.25334E-06
(PID.TID 0000.0001)  S/R SEAICE_KRYLOV: Picard iterate / total =     11 /    211, Nb. of FGMRES iterations =      1
(PID.TID 0000.0001)  S/R SEAICE_KRYLOV: Picard iterate / total, KRYLOVgamma_lin, initial norm =      12    212 0.12500E-01 0.12667E-06
(PID.TID 0000.0001)  S/R SEAICE_KRYLOV: Picard iterate / total =     12 /    212, Nb. of FGMRES iterations =      1
(PID.TID 0000.0001)  S/R SEAICE_KRYLOV: Picard iterate / total, KRYLOVgamma_lin, initial norm =      13    213 0.12500E-01 0.63334E-07
(PID.TID 0000.0001)  S/R SEAICE_KRYLOV: Picard iterate / total =     13 /    213, Nb. of FGMRES iterations =      1
(PID.TID 0000.0001)  S/R SEAICE_KRYLOV: Picard iterate / total, KRYLOVgamma_lin, initial norm =      14    214 0.12500E-01 0.31667E-07
(PID.TID 0000.0001)  S/R SEAICE_KRYLOV: Picard iterate / total =     14 /    214, Nb. of FGMRES iterations =      1
(PID.TID 0000.0001)  S/R SEAICE_KRYLOV: Picard iterate / total, KRYLOVgamma_lin, initial norm =      15    215 0.12500E-01 0.15834E-07
(PID.TID 0000.0001)  S/R SEAICE_KRYLOV: Picard iterate / total =     15 /    215, Nb. of FGMRES iterations =      1
(PID.TID 0000.0001)  S/R SEAICE_KRYLOV: Picard iterate / total, KRYLOVgamma_lin, initial norm =      16    216 0.12500E-01 0.79168E-08
(PID.TID 0000.0001)  S/R SEAICE_KRYLOV: Picard iterate / total =     16 /    216, Nb. of FGMRES iterations =      1
(PID.TID 0000.0001)  S/R SEAICE_KRYLOV: Picard iterate / total, KRYLOVgamma_lin, initial norm =      17    217 0.12500E-01 0.39584E-08
(PID.TID 0000.0001)  S/R SEAICE_KRYLOV: Picard iterate / total =     17 /    217, Nb. of FGMRES iterations =      1
(PID.TID 0000.0001)  S/R SEAICE_KRYLOV: Picard iterate / total, KRYLOVgamma_lin, initial norm =      18    218 0.12500E-01 0.19792E-08
(PID.TID 0000.0001)  S/R SEAICE_KRYLOV: Picard iterate / total =     18 /    218, Nb. of FGMRES iterations =      1
(PID.TID 0000.0001)  S/R SEAICE_KRYLOV: Picard iterate / total, KRYLOVgamma_lin, initial norm =      19    219 0.12500E-01 0.98959E-09
(PID.TID 0000.0001)  S/R SEAICE_KRYLOV: Picard iterate / total =     19 /    219, Nb. of FGMRES iterations =      1
(PID.TID 0000.0001)  S/R SEAICE_KRYLOV: Picard iterate / total, KRYLOVgamma_lin, initial norm =      20    220 0.12500E-01 0.49480E-09
(PID.TID 0000.0001)  S/R SEAICE_KRYLOV: Picard iterate / total =     20 /    220, Nb. of FGMRES iterations =      1
(PID.TID 0000.0001)  S/R SEAICE_KRYLOV: Picard iterate / total, KRYLOVgamma_lin, initial norm =      21    221 0.12500E-01 0.24740E-09
(PID.TID 0000.0001)  S/R SEAICE_KRYLOV: Picard iterate / total =     21 /    221, Nb. of FGMRES iterations =      1
(PID.TID 0000.0001)  S/R SEAICE_KRYLOV: Picard iterate / total, KRYLOVgamma_lin, initial norm =      22    222 0.12500E-01 0.12370E-09
(PID.TID 0000.0001)  S/R SEAICE_KRYLOV: Picard iterate / total =     22 /    222, Nb. of FGMRES iterations =      1
(PID.TID 0000.0001)  S/R SEAICE_KRYLOV: Picard iterate / total, KRYLOVgamma_lin, initial norm =      23    223 0.12500E-01 0.61850E-10
(PID.TID 0000.0001)  S/R SEAICE_KRYLOV: Picard iterate / total =     23 /    223, Nb. of FGMRES iterations =      1
(PID.TID 0000.0001)  S/R SEAICE_KRYLOV: Picard iterate / total, KRYLOVgamma_lin, initial norm =      24    224 0.12500E-01 0.30925E-10
(PID.TID 0000.0001)  S/R SEAICE_KRYLOV: Picard iterate / total =     24 /    224, Nb. of FGMRES iterations =      1
(PID.TID 0000.0001)  S/R SEAICE_KRYLOV: Picard iterate / total, KRYLOVgamma_lin, initial norm =      25    225 0.12500E-01 0.15462E-10
(PID.TID 0000.0001)  S/R SEAICE_KRYLOV: Picard iterate / total =     25 /    225, Nb. of FGMRES iterations =      1
(PID.TID 0000.0001)  S/R SEAICE_KRYLOV: Picard iterate / total, KRYLOVgamma_lin, initial norm =      26    226 0.12500E-01 0.77312E-11
(PID.TID 0000.0001)  S/R SEAICE_KRYLOV: Picard iterate / total =     26 /    226, Nb. of FGMRES iterations =      1
(PID.TID 0000.0001)  S/R SEAICE_KRYLOV: Picard iterate / total, KRYLOVgamma_lin, initial norm =      27    227 0.12500E-01 0.38656E-11
(PID.TID 0000.0001)  S/R SEAICE_KRYLOV: Picard iterate / total =     27 /    227, Nb. of FGMRES iterations =      1
(PID.TID 0000.0001)  S/R SEAICE_KRYLOV: Picard iterate / total, KRYLOVgamma_lin, initial norm =      28    228 0.12500E-01 0.19328E-11
(PID.TID 0000.0001)  S/R SEAICE_KRYLOV: Picard iterate / total =     28 /    228, Nb. of FGMRES iterations =      1
(PID.TID 0000.0001)  S/R SEAICE_KRYLOV: Picard iterate / total, KRYLOVgamma_lin, initial norm =      29    229 0.12500E-01 0.96640E-12
(PID.TID 0000.0001)  S/R SEAICE_KRYLOV: Picard iterate / total =     29 /    229, Nb. of FGMRES iterations =      1
(PID.TID 0000.0001)  S/R SEAICE_KRYLOV: Picard iterate / total, KRYLOVgamma_lin, initial norm =      30    230 0.12500E-01 0.48320E-12
(PID.TID 0000.0001)  S/R SEAICE_KRYLOV: Picard iterate / total =     30 /    230, Nb. of FGMRES iterations =      1
(PID.TID 0000.0001)  S/R SEAICE_KRYLOV: Picard iterate / total, KRYLOVgamma_lin, initial norm =      31    231 0.12500E-01 0.24160E-12
(PID.TID 0000.0001)  S/R SEAICE_KRYLOV: Picard iterate / total =     31 /    231, Nb. of FGMRES iterations =      1
(PID.TID 0000.0001)  S/R SEAICE_KRYLOV: Picard iterate / total, KRYLOVgamma_lin, initial norm =      32    232 0.12500E-01 0.12080E-12
(PID.TID 0000.0001)  S/R SEAICE_KRYLOV: Picard iterate / total =     32 /    232, Nb. of FGMRES iterations =      1
(PID.TID 0000.0001)  S/R SEAICE_KRYLOV: Picard iterate / total, KRYLOVgamma_lin, final   norm =      33    233 0.12500E-01 0.60400E-13
(PID.TID 0000.0001)  // =======================================================
(PID.TID 0000.0001)  // Begin KRYLOV statistics
(PID.TID 0000.0001)  // =======================================================
(PID.TID 0000.0001)  %KRYLOV_MON: time step              =          3
(PID.TID 0000.0001)  %KRYLOV_MON: Nb. of time steps      =          1
(PID.TID 0000.0001)  %KRYLOV_MON: Nb. of Picard steps    =         33
(PID.TID 0000.0001)  %KRYLOV_MON: Nb. of Krylov steps    =         32
(PID.TID 0000.0001)  %KRYLOV_MON: Nb. of Picard failures =          0
(PID.TID 0000.0001)  %KRYLOV_MON: Nb. of Krylov failures =          0
(PID.TID 0000.0001)  // =======================================================
(PID.TID 0000.0001)  // End KRYLOV statistics
(PID.TID 0000.0001)  // =======================================================
(PID.TID 0000.0001)  S/R SEAICE_KRYLOV: Total number FGMRES iterations =     32 in timestep          3
(PID.TID 0000.0001) // =======================================================
(PID.TID 0000.0001) // Begin MONITOR dynamic field statistics
(PID.TID 0000.0001) // =======================================================
(PID.TID 0000.0001) %MON time_tsnumber                =                     3
(PID.TID 0000.0001) %MON time_secondsf                =   7.5000000000000E+00
(PID.TID 0000.0001) %MON dynstat_eta_max              =   0.0000000000000E+00
(PID.TID 0000.0001) %MON dynstat_eta_min              =   0.0000000000000E+00
(PID.TID 0000.0001) %MON dynstat_eta_mean             =   0.0000000000000E+00
(PID.TID 0000.0001) %MON dynstat_eta_sd               =   0.0000000000000E+00
(PID.TID 0000.0001) %MON dynstat_eta_del2             =   0.0000000000000E+00
(PID.TID 0000.0001) %MON dynstat_uvel_max             =   9.8437500000000E-03
(PID.TID 0000.0001) %MON dynstat_uvel_min             =  -9.8437500000000E-03
(PID.TID 0000.0001) %MON dynstat_uvel_mean            =   0.0000000000000E+00
(PID.TID 0000.0001) %MON dynstat_uvel_sd              =   5.7727978755972E-03
(PID.TID 0000.0001) %MON dynstat_uvel_del2            =   1.0089048364799E-20
(PID.TID 0000.0001) %MON dynstat_vvel_max             =   9.8437500000000E-03
(PID.TID 0000.0001) %MON dynstat_vvel_min             =  -9.8437500000000E-03
(PID.TID 0000.0001) %MON dynstat_vvel_mean            =   0.0000000000000E+00
(PID.TID 0000.0001) %MON dynstat_vvel_sd              =   5.7727978755972E-03
(PID.TID 0000.0001) %MON dynstat_vvel_del2            =   1.0089048364799E-20
(PID.TID 0000.0001) %MON dynstat_wvel_max             =   1.1914062500000E-05
(PID.TID 0000.0001) %MON dynstat_wvel_min             =  -1.1914062500000E-05
(PID.TID 0000.0001) %MON dynstat_wvel_mean            =   3.4694469519536E-25
(PID.TID 0000.0001) %MON dynstat_wvel_sd              =   1.7200872247780E-06
(PID.TID 0000.0001) %MON dynstat_wvel_del2            =   2.8187489626940E-08
(PID.TID 0000.0001) %MON dynstat_theta_max            =  -1.6200000000000E+00
(PID.TID 0000.0001) %MON dynstat_theta_min            =  -1.6200000000000E+00
(PID.TID 0000.0001) %MON dynstat_theta_mean           =  -1.6200000000000E+00
(PID.TID 0000.0001) %MON dynstat_theta_sd             =   0.0000000000000E+00
(PID.TID 0000.0001) %MON dynstat_theta_del2           =   0.0000000000000E+00
(PID.TID 0000.0001) %MON dynstat_salt_max             =   3.0000000000000E+01
(PID.TID 0000.0001) %MON dynstat_salt_min             =   3.0000000000000E+01
(PID.TID 0000.0001) %MON dynstat_salt_mean            =   3.0000000000000E+01
(PID.TID 0000.0001) %MON dynstat_salt_sd              =   0.0000000000000E+00
(PID.TID 0000.0001) %MON dynstat_salt_del2            =   0.0000000000000E+00
(PID.TID 0000.0001) %MON trAdv_CFL_u_max              =   3.0761718750000E-06
(PID.TID 0000.0001) %MON trAdv_CFL_v_max              =   3.0761718750000E-06
(PID.TID 0000.0001) %MON trAdv_CFL_w_max              =   2.9785156250000E-06
(PID.TID 0000.0001) %MON advcfl_uvel_max              =   3.0761718750000E-06
(PID.TID 0000.0001) %MON advcfl_vvel_max              =   3.0761718750000E-06
(PID.TID 0000.0001) %MON advcfl_wvel_max              =   5.9570312500000E-06
(PID.TID 0000.0001) %MON advcfl_W_hf_max              =   0.0000000000000E+00
(PID.TID 0000.0001) %MON pe_b_mean                    =   0.0000000000000E+00
(PID.TID 0000.0001) %MON ke_max                       =   9.0844726562500E-05
(PID.TID 0000.0001) %MON ke_mean                      =   3.2804489135742E-05
(PID.TID 0000.0001) %MON ke_vol                       =   2.6214400000000E+12
(PID.TID 0000.0001) %MON vort_r_min                   =  -7.8125000000000E-08
(PID.TID 0000.0001) %MON vort_r_max                   =   1.2304687500000E-06
(PID.TID 0000.0001) %MON vort_a_mean                  =   1.4856000000000E-04
(PID.TID 0000.0001) %MON vort_a_sd                    =   1.5312918562496E-06
(PID.TID 0000.0001) %MON vort_p_mean                  =   1.5552375000000E-04
(PID.TID 0000.0001) %MON vort_p_sd                    =   5.5921473110222E-05
(PID.TID 0000.0001) %MON surfExpan_theta_mean         =   0.0000000000000E+00
(PID.TID 0000.0001) %MON surfExpan_salt_mean          =   1.3877787807814E-23
(PID.TID 0000.0001) // =======================================================
(PID.TID 0000.0001) // End MONITOR dynamic field statistics
(PID.TID 0000.0001) // =======================================================
(PID.TID 0000.0001) // =======================================================
(PID.TID 0000.0001) // Begin MONITOR SEAICE statistics
(PID.TID 0000.0001) // =======================================================
(PID.TID 0000.0001) %MON seaice_tsnumber              =                     3
(PID.TID 0000.0001) %MON seaice_time_sec              =   7.5000000000000E+00
(PID.TID 0000.0001) %MON seaice_uice_max              =   5.2451215467123E-03
(PID.TID 0000.0001) %MON seaice_uice_min              =  -5.3690004750515E-03
(PID.TID 0000.0001) %MON seaice_uice_mean             =  -1.2657279804558E-07
(PID.TID 0000.0001) %MON seaice_uice_sd               =   2.2566174916349E-03
(PID.TID 0000.0001) %MON seaice_uice_del2             =   5.7542219167720E-07
(PID.TID 0000.0001) %MON seaice_vice_max              =   5.1172209948935E-03
(PID.TID 0000.0001) %MON seaice_vice_min              =  -5.1855892947857E-03
(PID.TID 0000.0001) %MON seaice_vice_mean             =   5.6379892780082E-07
(PID.TID 0000.0001) %MON seaice_vice_sd               =   2.2454781554049E-03
(PID.TID 0000.0001) %MON seaice_vice_del2             =   5.7341880908468E-07
(PID.TID 0000.0001) %MON seaice_area_max              =   1.0000000000000E+00
(PID.TID 0000.0001) %MON seaice_area_min              =   9.9999955882032E-01
(PID.TID 0000.0001) %MON seaice_area_mean             =   9.9999997441775E-01
(PID.TID 0000.0001) %MON seaice_area_sd               =   6.0648803471813E-08
(PID.TID 0000.0001) %MON seaice_area_del2             =   7.2622836436446E-10
(PID.TID 0000.0001) %MON seaice_heff_max              =   3.0999866635412E-01
(PID.TID 0000.0001) %MON seaice_heff_min              =   2.9006055904905E-01
(PID.TID 0000.0001) %MON seaice_heff_mean             =   3.0067126525963E-01
(PID.TID 0000.0001) %MON seaice_heff_sd               =   5.0069226126831E-03
(PID.TID 0000.0001) %MON seaice_heff_del2             =   1.2853747580783E-05
(PID.TID 0000.0001) %MON seaice_hsnow_max             =   0.0000000000000E+00
(PID.TID 0000.0001) %MON seaice_hsnow_min             =   0.0000000000000E+00
(PID.TID 0000.0001) %MON seaice_hsnow_mean            =   0.0000000000000E+00
(PID.TID 0000.0001) %MON seaice_hsnow_sd              =   0.0000000000000E+00
(PID.TID 0000.0001) %MON seaice_hsnow_del2            =   0.0000000000000E+00
(PID.TID 0000.0001) // =======================================================
(PID.TID 0000.0001) // End MONITOR SEAICE statistics
(PID.TID 0000.0001) // =======================================================
 Computing Diagnostic #    163  SIuice       Counter:       1   Parms: UU      M1      
           Vector  Mate for  SIuice       Diagnostic #    164  SIvice   exists 
 Computing Diagnostic #    164  SIvice       Counter:       1   Parms: VV      M1      
           Vector  Mate for  SIvice       Diagnostic #    163  SIuice   exists 
 Computing Diagnostic #    149  SIheff       Counter:       1   Parms: SM      M1      
 Computing Diagnostic #    146  SIarea       Counter:       1   Parms: SM      M1      
 Computing Diagnostic #    228  SIshear      Counter:       1   Parms: SM      M1      
 Computing Diagnostic #    233  SIcohes      Counter:       1   Parms: SM      M1      
 Computing Diagnostic #    221  SIsig1       Counter:       1   Parms: SM      M1      
 Computing Diagnostic #    222  SIsig2       Counter:       1   Parms: SM      M1      
 Computing Diagnostic #    231  SIdamage     Counter:       1   Parms: SM      M1      
 Computing Diagnostic #    165  SItaux       Counter:       1   Parms: UU      U1      
           Vector  Mate for  SItaux       Diagnostic #    166  SItauy   exists 
 Computing Diagnostic #    166  SItauy       Counter:       1   Parms: VV      U1      
           Vector  Mate for  SItauy       Diagnostic #    165  SItaux   exists 
 Computing Diagnostic #    133  EXFuwind     Counter:       1   Parms: UM      U1      
 Computing Diagnostic #    134  EXFvwind     Counter:       1   Parms: VM      U1      
(PID.TID 0000.0001)  S/R SEAICE_KRYLOV: Picard iterate / total, KRYLOVgamma_lin, initial norm =       1    301 0.10000E+00 0.11292E+00
(PID.TID 0000.0001)  S/R SEAICE_KRYLOV: Picard iterate / total =      1 /    301, Nb. of FGMRES iterations =      1
(PID.TID 0000.0001)  S/R SEAICE_KRYLOV: Picard iterate / total, KRYLOVgamma_lin, initial norm =       2    302 0.50000E-01 0.24141E-03
(PID.TID 0000.0001)  S/R SEAICE_KRYLOV: Picard iterate / total =      2 /    302, Nb. of FGMRES iterations =      1
(PID.TID 0000.0001)  S/R SEAICE_KRYLOV: Picard iterate / total, KRYLOVgamma_lin, initial norm =       3    303 0.50000E-01 0.39722E-04
(PID.TID 0000.0001)  S/R SEAICE_KRYLOV: Picard iterate / total =      3 /    303, Nb. of FGMRES iterations =      1
(PID.TID 0000.0001)  S/R SEAICE_KRYLOV: Picard iterate / total, KRYLOVgamma_lin, initial norm =       4    304 0.33333E-01 0.25664E-04
(PID.TID 0000.0001)  S/R SEAICE_KRYLOV: Picard iterate / total =      4 /    304, Nb. of FGMRES iterations =      1
(PID.TID 0000.0001)  S/R SEAICE_KRYLOV: Picard iterate / total, KRYLOVgamma_lin, initial norm =       5    305 0.33333E-01 0.12324E-04
(PID.TID 0000.0001)  S/R SEAICE_KRYLOV: Picard iterate / total =      5 /    305, Nb. of FGMRES iterations =      1
(PID.TID 0000.0001)  S/R SEAICE_KRYLOV: Picard iterate / total, KRYLOVgamma_lin, initial norm =       6    306 0.33333E-01 0.62045E-05
(PID.TID 0000.0001)  S/R SEAICE_KRYLOV: Picard iterate / total =      6 /    306, Nb. of FGMRES iterations =      1
(PID.TID 0000.0001)  S/R SEAICE_KRYLOV: Picard iterate / total, KRYLOVgamma_lin, initial norm =       7    307 0.33333E-01 0.30987E-05
(PID.TID 0000.0001)  S/R SEAICE_KRYLOV: Picard iterate / total =      7 /    307, Nb. of FGMRES iterations =      1
(PID.TID 0000.0001)  S/R SEAICE_KRYLOV: Picard iterate / total, KRYLOVgamma_lin, initial norm =       8    308 0.25000E-01 0.15496E-05
(PID.TID 0000.0001)  S/R SEAICE_KRYLOV: Picard iterate / total =      8 /    308, Nb. of FGMRES iterations =      1
(PID.TID 0000.0001)  S/R SEAICE_KRYLOV: Picard iterate / total, KRYLOVgamma_lin, initial norm =       9    309 0.20000E-01 0.77480E-06
(PID.TID 0000.0001)  S/R SEAICE_KRYLOV: Picard iterate / total =      9 /    309, Nb. of FGMRES iterations =      1
(PID.TID 0000.0001)  S/R SEAICE_KRYLOV: Picard iterate / total, KRYLOVgamma_lin, initial norm =      10    310 0.12500E-01 0.38740E-06
(PID.TID 0000.0001)  S/R SEAICE_KRYLOV: Picard iterate / total =     10 /    310, Nb. of FGMRES iterations =      1
(PID.TID 0000.0001)  S/R SEAICE_KRYLOV: Picard iterate / total, KRYLOVgamma_lin, initial norm =      11    311 0.12500E-01 0.19370E-06
(PID.TID 0000.0001)  S/R SEAICE_KRYLOV: Picard iterate / total =     11 /    311, Nb. of FGMRES iterations =      1
(PID.TID 0000.0001)  S/R SEAICE_KRYLOV: Picard iterate / total, KRYLOVgamma_lin, initial norm =      12    312 0.12500E-01 0.96850E-07
(PID.TID 0000.0001)  S/R SEAICE_KRYLOV: Picard iterate / total =     12 /    312, Nb. of FGMRES iterations =      1
(PID.TID 0000.0001)  S/R SEAICE_KRYLOV: Picard iterate / total, KRYLOVgamma_lin, initial norm =      13    313 0.12500E-01 0.48425E-07
(PID.TID 0000.0001)  S/R SEAICE_KRYLOV: Picard iterate / total =     13 /    313, Nb. of FGMRES iterations =      1
(PID.TID 0000.0001)  S/R SEAICE_KRYLOV: Picard iterate / total, KRYLOVgamma_lin, initial norm =      14    314 0.12500E-01 0.24213E-07
(PID.TID 0000.0001)  S/R SEAICE_KRYLOV: Picard iterate / total =     14 /    314, Nb. of FGMRES iterations =      1
(PID.TID 0000.0001)  S/R SEAICE_KRYLOV: Picard iterate / total, KRYLOVgamma_lin, initial norm =      15    315 0.12500E-01 0.12106E-07
(PID.TID 0000.0001)  S/R SEAICE_KRYLOV: Picard iterate / total =     15 /    315, Nb. of FGMRES iterations =      1
(PID.TID 0000.0001)  S/R SEAICE_KRYLOV: Picard iterate / total, KRYLOVgamma_lin, initial norm =      16    316 0.12500E-01 0.60531E-08
(PID.TID 0000.0001)  S/R SEAICE_KRYLOV: Picard iterate / total =     16 /    316, Nb. of FGMRES iterations =      1
(PID.TID 0000.0001)  S/R SEAICE_KRYLOV: Picard iterate / total, KRYLOVgamma_lin, initial norm =      17    317 0.12500E-01 0.30266E-08
(PID.TID 0000.0001)  S/R SEAICE_KRYLOV: Picard iterate / total =     17 /    317, Nb. of FGMRES iterations =      1
(PID.TID 0000.0001)  S/R SEAICE_KRYLOV: Picard iterate / total, KRYLOVgamma_lin, initial norm =      18    318 0.12500E-01 0.15133E-08
(PID.TID 0000.0001)  S/R SEAICE_KRYLOV: Picard iterate / total =     18 /    318, Nb. of FGMRES iterations =      1
(PID.TID 0000.0001)  S/R SEAICE_KRYLOV: Picard iterate / total, KRYLOVgamma_lin, initial norm =      19    319 0.12500E-01 0.75664E-09
(PID.TID 0000.0001)  S/R SEAICE_KRYLOV: Picard iterate / total =     19 /    319, Nb. of FGMRES iterations =      1
(PID.TID 0000.0001)  S/R SEAICE_KRYLOV: Picard iterate / total, KRYLOVgamma_lin, initial norm =      20    320 0.12500E-01 0.37832E-09
(PID.TID 0000.0001)  S/R SEAICE_KRYLOV: Picard iterate / total =     20 /    320, Nb. of FGMRES iterations =      1
(PID.TID 0000.0001)  S/R SEAICE_KRYLOV: Picard iterate / total, KRYLOVgamma_lin, initial norm =      21    321 0.12500E-01 0.18916E-09
(PID.TID 0000.0001)  S/R SEAICE_KRYLOV: Picard iterate / total =     21 /    321, Nb. of FGMRES iterations =      1
(PID.TID 0000.0001)  S/R SEAICE_KRYLOV: Picard iterate / total, KRYLOVgamma_lin, initial norm =      22    322 0.12500E-01 0.94580E-10
(PID.TID 0000.0001)  S/R SEAICE_KRYLOV: Picard iterate / total =     22 /    322, Nb. of FGMRES iterations =      1
(PID.TID 0000.0001)  S/R SEAICE_KRYLOV: Picard iterate / total, KRYLOVgamma_lin, initial norm =      23    323 0.12500E-01 0.47290E-10
(PID.TID 0000.0001)  S/R SEAICE_KRYLOV: Picard iterate / total =     23 /    323, Nb. of FGMRES iterations =      1
(PID.TID 0000.0001)  S/R SEAICE_KRYLOV: Picard iterate / total, KRYLOVgamma_lin, initial norm =      24    324 0.12500E-01 0.23645E-10
(PID.TID 0000.0001)  S/R SEAICE_KRYLOV: Picard iterate / total =     24 /    324, Nb. of FGMRES iterations =      1
(PID.TID 0000.0001)  S/R SEAICE_KRYLOV: Picard iterate / total, KRYLOVgamma_lin, initial norm =      25    325 0.12500E-01 0.11823E-10
(PID.TID 0000.0001)  S/R SEAICE_KRYLOV: Picard iterate / total =     25 /    325, Nb. of FGMRES iterations =      1
(PID.TID 0000.0001)  S/R SEAICE_KRYLOV: Picard iterate / total, KRYLOVgamma_lin, initial norm =      26    326 0.12500E-01 0.59113E-11
(PID.TID 0000.0001)  S/R SEAICE_KRYLOV: Picard iterate / total =     26 /    326, Nb. of FGMRES iterations =      1
(PID.TID 0000.0001)  S/R SEAICE_KRYLOV: Picard iterate / total, KRYLOVgamma_lin, initial norm =      27    327 0.12500E-01 0.29556E-11
(PID.TID 0000.0001)  S/R SEAICE_KRYLOV: Picard iterate / total =     27 /    327, Nb. of FGMRES iterations =      1
(PID.TID 0000.0001)  S/R SEAICE_KRYLOV: Picard iterate / total, KRYLOVgamma_lin, initial norm =      28    328 0.12500E-01 0.14778E-11
(PID.TID 0000.0001)  S/R SEAICE_KRYLOV: Picard iterate / total =     28 /    328, Nb. of FGMRES iterations =      1
(PID.TID 0000.0001)  S/R SEAICE_KRYLOV: Picard iterate / total, KRYLOVgamma_lin, initial norm =      29    329 0.12500E-01 0.73891E-12
(PID.TID 0000.0001)  S/R SEAICE_KRYLOV: Picard iterate / total =     29 /    329, Nb. of FGMRES iterations =      1
(PID.TID 0000.0001)  S/R SEAICE_KRYLOV: Picard iterate / total, KRYLOVgamma_lin, initial norm =      30    330 0.12500E-01 0.36945E-12
(PID.TID 0000.0001)  S/R SEAICE_KRYLOV: Picard iterate / total =     30 /    330, Nb. of FGMRES iterations =      1
(PID.TID 0000.0001)  S/R SEAICE_KRYLOV: Picard iterate / total, KRYLOVgamma_lin, initial norm =      31    331 0.12500E-01 0.18473E-12
(PID.TID 0000.0001)  S/R SEAICE_KRYLOV: Picard iterate / total =     31 /    331, Nb. of FGMRES iterations =      1
(PID.TID 0000.0001)  S/R SEAICE_KRYLOV: Picard iterate / total, KRYLOVgamma_lin, final   norm =      32    332 0.12500E-01 0.92363E-13
(PID.TID 0000.0001)  // =======================================================
(PID.TID 0000.0001)  // Begin KRYLOV statistics
(PID.TID 0000.0001)  // =======================================================
(PID.TID 0000.0001)  %KRYLOV_MON: time step              =          4
(PID.TID 0000.0001)  %KRYLOV_MON: Nb. of time steps      =          1
(PID.TID 0000.0001)  %KRYLOV_MON: Nb. of Picard steps    =         32
(PID.TID 0000.0001)  %KRYLOV_MON: Nb. of Krylov steps    =         31
(PID.TID 0000.0001)  %KRYLOV_MON: Nb. of Picard failures =          0
(PID.TID 0000.0001)  %KRYLOV_MON: Nb. of Krylov failures =          0
(PID.TID 0000.0001)  // =======================================================
(PID.TID 0000.0001)  // End KRYLOV statistics
(PID.TID 0000.0001)  // =======================================================
(PID.TID 0000.0001)  S/R SEAICE_KRYLOV: Total number FGMRES iterations =     31 in timestep          4
(PID.TID 0000.0001) // =======================================================
(PID.TID 0000.0001) // Begin MONITOR dynamic field statistics
(PID.TID 0000.0001) // =======================================================
(PID.TID 0000.0001) %MON time_tsnumber                =                     4
(PID.TID 0000.0001) %MON time_secondsf                =   1.0000000000000E+01
(PID.TID 0000.0001) %MON dynstat_eta_max              =   0.0000000000000E+00
(PID.TID 0000.0001) %MON dynstat_eta_min              =   0.0000000000000E+00
(PID.TID 0000.0001) %MON dynstat_eta_mean             =   0.0000000000000E+00
(PID.TID 0000.0001) %MON dynstat_eta_sd               =   0.0000000000000E+00
(PID.TID 0000.0001) %MON dynstat_eta_del2             =   0.0000000000000E+00
(PID.TID 0000.0001) %MON dynstat_uvel_max             =   9.8437500000000E-03
(PID.TID 0000.0001) %MON dynstat_uvel_min             =  -9.8437500000000E-03
(PID.TID 0000.0001) %MON dynstat_uvel_mean            =   0.0000000000000E+00
(PID.TID 0000.0001) %MON dynstat_uvel_sd              =   5.7727978755972E-03
(PID.TID 0000.0001) %MON dynstat_uvel_del2            =   1.0089048364799E-20
(PID.TID 0000.0001) %MON dynstat_vvel_max             =   9.8437500000000E-03
(PID.TID 0000.0001) %MON dynstat_vvel_min             =  -9.8437500000000E-03
(PID.TID 0000.0001) %MON dynstat_vvel_mean            =   0.0000000000000E+00
(PID.TID 0000.0001) %MON dynstat_vvel_sd              =   5.7727978755972E-03
(PID.TID 0000.0001) %MON dynstat_vvel_del2            =   1.0089048364799E-20
(PID.TID 0000.0001) %MON dynstat_wvel_max             =   1.1914062500000E-05
(PID.TID 0000.0001) %MON dynstat_wvel_min             =  -1.1914062500000E-05
(PID.TID 0000.0001) %MON dynstat_wvel_mean            =   3.4694469519536E-25
(PID.TID 0000.0001) %MON dynstat_wvel_sd              =   1.7200872247780E-06
(PID.TID 0000.0001) %MON dynstat_wvel_del2            =   2.8187489626940E-08
(PID.TID 0000.0001) %MON dynstat_theta_max            =  -1.6200000000000E+00
(PID.TID 0000.0001) %MON dynstat_theta_min            =  -1.6200000000000E+00
(PID.TID 0000.0001) %MON dynstat_theta_mean           =  -1.6200000000000E+00
(PID.TID 0000.0001) %MON dynstat_theta_sd             =   0.0000000000000E+00
(PID.TID 0000.0001) %MON dynstat_theta_del2           =   0.0000000000000E+00
(PID.TID 0000.0001) %MON dynstat_salt_max             =   3.0000000000000E+01
(PID.TID 0000.0001) %MON dynstat_salt_min             =   3.0000000000000E+01
(PID.TID 0000.0001) %MON dynstat_salt_mean            =   3.0000000000000E+01
(PID.TID 0000.0001) %MON dynstat_salt_sd              =   0.0000000000000E+00
(PID.TID 0000.0001) %MON dynstat_salt_del2            =   0.0000000000000E+00
(PID.TID 0000.0001) %MON trAdv_CFL_u_max              =   3.0761718750000E-06
(PID.TID 0000.0001) %MON trAdv_CFL_v_max              =   3.0761718750000E-06
(PID.TID 0000.0001) %MON trAdv_CFL_w_max              =   2.9785156250000E-06
(PID.TID 0000.0001) %MON advcfl_uvel_max              =   3.0761718750000E-06
(PID.TID 0000.0001) %MON advcfl_vvel_max              =   3.0761718750000E-06
(PID.TID 0000.0001) %MON advcfl_wvel_max              =   5.9570312500000E-06
(PID.TID 0000.0001) %MON advcfl_W_hf_max              =   0.0000000000000E+00
(PID.TID 0000.0001) %MON pe_b_mean                    =   0.0000000000000E+00
(PID.TID 0000.0001) %MON ke_max                       =   9.0844726562500E-05
(PID.TID 0000.0001) %MON ke_mean                      =   3.2804489135742E-05
(PID.TID 0000.0001) %MON ke_vol                       =   2.6214400000000E+12
(PID.TID 0000.0001) %MON vort_r_min                   =  -7.8125000000000E-08
(PID.TID 0000.0001) %MON vort_r_max                   =   1.2304687500000E-06
(PID.TID 0000.0001) %MON vort_a_mean                  =   1.4856000000000E-04
(PID.TID 0000.0001) %MON vort_a_sd                    =   1.5312918562496E-06
(PID.TID 0000.0001) %MON vort_p_mean                  =   1.5552375000000E-04
(PID.TID 0000.0001) %MON vort_p_sd                    =   5.5921473110222E-05
(PID.TID 0000.0001) %MON surfExpan_theta_mean         =   0.0000000000000E+00
(PID.TID 0000.0001) %MON surfExpan_salt_mean          =   1.3877787807814E-23
(PID.TID 0000.0001) // =======================================================
(PID.TID 0000.0001) // End MONITOR dynamic field statistics
(PID.TID 0000.0001) // =======================================================
(PID.TID 0000.0001) // =======================================================
(PID.TID 0000.0001) // Begin MONITOR SEAICE statistics
(PID.TID 0000.0001) // =======================================================
(PID.TID 0000.0001) %MON seaice_tsnumber              =                     4
(PID.TID 0000.0001) %MON seaice_time_sec              =   1.0000000000000E+01
(PID.TID 0000.0001) %MON seaice_uice_max              =   6.9802437222242E-03
(PID.TID 0000.0001) %MON seaice_uice_min              =  -7.1421177563362E-03
(PID.TID 0000.0001) %MON seaice_uice_mean             =  -1.6367367844579E-07
(PID.TID 0000.0001) %MON seaice_uice_sd               =   3.0030940622969E-03
(PID.TID 0000.0001) %MON seaice_uice_del2             =   8.3044137358145E-07
(PID.TID 0000.0001) %MON seaice_vice_max              =   6.8109367807075E-03
(PID.TID 0000.0001) %MON seaice_vice_min              =  -6.9007032733596E-03
(PID.TID 0000.0001) %MON seaice_vice_mean             =   7.4946347062169E-07
(PID.TID 0000.0001) %MON seaice_vice_sd               =   2.9883069089293E-03
(PID.TID 0000.0001) %MON seaice_vice_del2             =   8.2940663229804E-07
(PID.TID 0000.0001) %MON seaice_area_max              =   1.0000000000000E+00
(PID.TID 0000.0001) %MON seaice_area_min              =   9.9999928730667E-01
(PID.TID 0000.0001) %MON seaice_area_mean             =   9.9999995750104E-01
(PID.TID 0000.0001) %MON seaice_area_sd               =   9.7994217799241E-08
(PID.TID 0000.0001) %MON seaice_area_del2             =   1.0851534278954E-09
(PID.TID 0000.0001) %MON seaice_heff_max              =   3.0999866187921E-01
(PID.TID 0000.0001) %MON seaice_heff_min              =   2.9006055437991E-01
(PID.TID 0000.0001) %MON seaice_heff_mean             =   3.0067126525963E-01
(PID.TID 0000.0001) %MON seaice_heff_sd               =   5.0069227392743E-03
(PID.TID 0000.0001) %MON seaice_heff_del2             =   1.2853747701730E-05
(PID.TID 0000.0001) %MON seaice_hsnow_max             =   0.0000000000000E+00
(PID.TID 0000.0001) %MON seaice_hsnow_min             =   0.0000000000000E+00
(PID.TID 0000.0001) %MON seaice_hsnow_mean            =   0.0000000000000E+00
(PID.TID 0000.0001) %MON seaice_hsnow_sd              =   0.0000000000000E+00
(PID.TID 0000.0001) %MON seaice_hsnow_del2            =   0.0000000000000E+00
(PID.TID 0000.0001) // =======================================================
(PID.TID 0000.0001) // End MONITOR SEAICE statistics
(PID.TID 0000.0001) // =======================================================
 Computing Diagnostic #    163  SIuice       Counter:       1   Parms: UU      M1      
           Vector  Mate for  SIuice       Diagnostic #    164  SIvice   exists 
 Computing Diagnostic #    164  SIvice       Counter:       1   Parms: VV      M1      
           Vector  Mate for  SIvice       Diagnostic #    163  SIuice   exists 
 Computing Diagnostic #    149  SIheff       Counter:       1   Parms: SM      M1      
 Computing Diagnostic #    146  SIarea       Counter:       1   Parms: SM      M1      
 Computing Diagnostic #    228  SIshear      Counter:       1   Parms: SM      M1      
 Computing Diagnostic #    233  SIcohes      Counter:       1   Parms: SM      M1      
 Computing Diagnostic #    221  SIsig1       Counter:       1   Parms: SM      M1      
 Computing Diagnostic #    222  SIsig2       Counter:       1   Parms: SM      M1      
 Computing Diagnostic #    231  SIdamage     Counter:       1   Parms: SM      M1      
 Computing Diagnostic #    165  SItaux       Counter:       1   Parms: UU      U1      
           Vector  Mate for  SItaux       Diagnostic #    166  SItauy   exists 
 Computing Diagnostic #    166  SItauy       Counter:       1   Parms: VV      U1      
           Vector  Mate for  SItauy       Diagnostic #    165  SItaux   exists 
 Computing Diagnostic #    133  EXFuwind     Counter:       1   Parms: UM      U1      
 Computing Diagnostic #    134  EXFvwind     Counter:       1   Parms: VM      U1      
(PID.TID 0000.0001)  S/R SEAICE_KRYLOV: Picard iterate / total, KRYLOVgamma_lin, initial norm =       1    401 0.10000E+00 0.11249E+00
(PID.TID 0000.0001)  S/R SEAICE_KRYLOV: Picard iterate / total =      1 /    401, Nb. of FGMRES iterations =      1
(PID.TID 0000.0001)  S/R SEAICE_KRYLOV: Picard iterate / total, KRYLOVgamma_lin, initial norm =       2    402 0.50000E-01 0.25924E-03
(PID.TID 0000.0001)  S/R SEAICE_KRYLOV: Picard iterate / total =      2 /    402, Nb. of FGMRES iterations =      1
(PID.TID 0000.0001)  S/R SEAICE_KRYLOV: Picard iterate / total, KRYLOVgamma_lin, initial norm =       3    403 0.50000E-01 0.31766E-04
(PID.TID 0000.0001)  S/R SEAICE_KRYLOV: Picard iterate / total =      3 /    403, Nb. of FGMRES iterations =      1
(PID.TID 0000.0001)  S/R SEAICE_KRYLOV: Picard iterate / total, KRYLOVgamma_lin, initial norm =       4    404 0.33333E-01 0.23125E-04
(PID.TID 0000.0001)  S/R SEAICE_KRYLOV: Picard iterate / total =      4 /    404, Nb. of FGMRES iterations =      1
(PID.TID 0000.0001)  S/R SEAICE_KRYLOV: Picard iterate / total, KRYLOVgamma_lin, initial norm =       5    405 0.33333E-01 0.10934E-04
(PID.TID 0000.0001)  S/R SEAICE_KRYLOV: Picard iterate / total =      5 /    405, Nb. of FGMRES iterations =      1
(PID.TID 0000.0001)  S/R SEAICE_KRYLOV: Picard iterate / total, KRYLOVgamma_lin, initial norm =       6    406 0.33333E-01 0.55194E-05
(PID.TID 0000.0001)  S/R SEAICE_KRYLOV: Picard iterate / total =      6 /    406, Nb. of FGMRES iterations =      1
(PID.TID 0000.0001)  S/R SEAICE_KRYLOV: Picard iterate / total, KRYLOVgamma_lin, initial norm =       7    407 0.33333E-01 0.27553E-05
(PID.TID 0000.0001)  S/R SEAICE_KRYLOV: Picard iterate / total =      7 /    407, Nb. of FGMRES iterations =      1
(PID.TID 0000.0001)  S/R SEAICE_KRYLOV: Picard iterate / total, KRYLOVgamma_lin, initial norm =       8    408 0.25000E-01 0.13780E-05
(PID.TID 0000.0001)  S/R SEAICE_KRYLOV: Picard iterate / total =      8 /    408, Nb. of FGMRES iterations =      1
(PID.TID 0000.0001)  S/R SEAICE_KRYLOV: Picard iterate / total, KRYLOVgamma_lin, initial norm =       9    409 0.20000E-01 0.68898E-06
(PID.TID 0000.0001)  S/R SEAICE_KRYLOV: Picard iterate / total =      9 /    409, Nb. of FGMRES iterations =      1
(PID.TID 0000.0001)  S/R SEAICE_KRYLOV: Picard iterate / total, KRYLOVgamma_lin, initial norm =      10    410 0.12500E-01 0.34449E-06
(PID.TID 0000.0001)  S/R SEAICE_KRYLOV: Picard iterate / total =     10 /    410, Nb. of FGMRES iterations =      1
(PID.TID 0000.0001)  S/R SEAICE_KRYLOV: Picard iterate / total, KRYLOVgamma_lin, initial norm =      11    411 0.12500E-01 0.17225E-06
(PID.TID 0000.0001)  S/R SEAICE_KRYLOV: Picard iterate / total =     11 /    411, Nb. of FGMRES iterations =      1
(PID.TID 0000.0001)  S/R SEAICE_KRYLOV: Picard iterate / total, KRYLOVgamma_lin, initial norm =      12    412 0.12500E-01 0.86124E-07
(PID.TID 0000.0001)  S/R SEAICE_KRYLOV: Picard iterate / total =     12 /    412, Nb. of FGMRES iterations =      1
(PID.TID 0000.0001)  S/R SEAICE_KRYLOV: Picard iterate / total, KRYLOVgamma_lin, initial norm =      13    413 0.12500E-01 0.43062E-07
(PID.TID 0000.0001)  S/R SEAICE_KRYLOV: Picard iterate / total =     13 /    413, Nb. of FGMRES iterations =      1
(PID.TID 0000.0001)  S/R SEAICE_KRYLOV: Picard iterate / total, KRYLOVgamma_lin, initial norm =      14    414 0.12500E-01 0.21531E-07
(PID.TID 0000.0001)  S/R SEAICE_KRYLOV: Picard iterate / total =     14 /    414, Nb. of FGMRES iterations =      1
(PID.TID 0000.0001)  S/R SEAICE_KRYLOV: Picard iterate / total, KRYLOVgamma_lin, initial norm =      15    415 0.12500E-01 0.10765E-07
(PID.TID 0000.0001)  S/R SEAICE_KRYLOV: Picard iterate / total =     15 /    415, Nb. of FGMRES iterations =      1
(PID.TID 0000.0001)  S/R SEAICE_KRYLOV: Picard iterate / total, KRYLOVgamma_lin, initial norm =      16    416 0.12500E-01 0.53827E-08
(PID.TID 0000.0001)  S/R SEAICE_KRYLOV: Picard iterate / total =     16 /    416, Nb. of FGMRES iterations =      1
(PID.TID 0000.0001)  S/R SEAICE_KRYLOV: Picard iterate / total, KRYLOVgamma_lin, initial norm =      17    417 0.12500E-01 0.26914E-08
(PID.TID 0000.0001)  S/R SEAICE_KRYLOV: Picard iterate / total =     17 /    417, Nb. of FGMRES iterations =      1
(PID.TID 0000.0001)  S/R SEAICE_KRYLOV: Picard iterate / total, KRYLOVgamma_lin, initial norm =      18    418 0.12500E-01 0.13457E-08
(PID.TID 0000.0001)  S/R SEAICE_KRYLOV: Picard iterate / total =     18 /    418, Nb. of FGMRES iterations =      1
(PID.TID 0000.0001)  S/R SEAICE_KRYLOV: Picard iterate / total, KRYLOVgamma_lin, initial norm =      19    419 0.12500E-01 0.67284E-09
(PID.TID 0000.0001)  S/R SEAICE_KRYLOV: Picard iterate / total =     19 /    419, Nb. of FGMRES iterations =      1
(PID.TID 0000.0001)  S/R SEAICE_KRYLOV: Picard iterate / total, KRYLOVgamma_lin, initial norm =      20    420 0.12500E-01 0.33642E-09
(PID.TID 0000.0001)  S/R SEAICE_KRYLOV: Picard iterate / total =     20 /    420, Nb. of FGMRES iterations =      1
(PID.TID 0000.0001)  S/R SEAICE_KRYLOV: Picard iterate / total, KRYLOVgamma_lin, initial norm =      21    421 0.12500E-01 0.16821E-09
(PID.TID 0000.0001)  S/R SEAICE_KRYLOV: Picard iterate / total =     21 /    421, Nb. of FGMRES iterations =      1
(PID.TID 0000.0001)  S/R SEAICE_KRYLOV: Picard iterate / total, KRYLOVgamma_lin, initial norm =      22    422 0.12500E-01 0.84105E-10
(PID.TID 0000.0001)  S/R SEAICE_KRYLOV: Picard iterate / total =     22 /    422, Nb. of FGMRES iterations =      1
(PID.TID 0000.0001)  S/R SEAICE_KRYLOV: Picard iterate / total, KRYLOVgamma_lin, initial norm =      23    423 0.12500E-01 0.42053E-10
(PID.TID 0000.0001)  S/R SEAICE_KRYLOV: Picard iterate / total =     23 /    423, Nb. of FGMRES iterations =      1
(PID.TID 0000.0001)  S/R SEAICE_KRYLOV: Picard iterate / total, KRYLOVgamma_lin, initial norm =      24    424 0.12500E-01 0.21026E-10
(PID.TID 0000.0001)  S/R SEAICE_KRYLOV: Picard iterate / total =     24 /    424, Nb. of FGMRES iterations =      1
(PID.TID 0000.0001)  S/R SEAICE_KRYLOV: Picard iterate / total, KRYLOVgamma_lin, initial norm =      25    425 0.12500E-01 0.10513E-10
(PID.TID 0000.0001)  S/R SEAICE_KRYLOV: Picard iterate / total =     25 /    425, Nb. of FGMRES iterations =      1
(PID.TID 0000.0001)  S/R SEAICE_KRYLOV: Picard iterate / total, KRYLOVgamma_lin, initial norm =      26    426 0.12500E-01 0.52566E-11
(PID.TID 0000.0001)  S/R SEAICE_KRYLOV: Picard iterate / total =     26 /    426, Nb. of FGMRES iterations =      1
(PID.TID 0000.0001)  S/R SEAICE_KRYLOV: Picard iterate / total, KRYLOVgamma_lin, initial norm =      27    427 0.12500E-01 0.26283E-11
(PID.TID 0000.0001)  S/R SEAICE_KRYLOV: Picard iterate / total =     27 /    427, Nb. of FGMRES iterations =      1
(PID.TID 0000.0001)  S/R SEAICE_KRYLOV: Picard iterate / total, KRYLOVgamma_lin, initial norm =      28    428 0.12500E-01 0.13141E-11
(PID.TID 0000.0001)  S/R SEAICE_KRYLOV: Picard iterate / total =     28 /    428, Nb. of FGMRES iterations =      1
(PID.TID 0000.0001)  S/R SEAICE_KRYLOV: Picard iterate / total, KRYLOVgamma_lin, initial norm =      29    429 0.12500E-01 0.65707E-12
(PID.TID 0000.0001)  S/R SEAICE_KRYLOV: Picard iterate / total =     29 /    429, Nb. of FGMRES iterations =      1
(PID.TID 0000.0001)  S/R SEAICE_KRYLOV: Picard iterate / total, KRYLOVgamma_lin, initial norm =      30    430 0.12500E-01 0.32854E-12
(PID.TID 0000.0001)  S/R SEAICE_KRYLOV: Picard iterate / total =     30 /    430, Nb. of FGMRES iterations =      1
(PID.TID 0000.0001)  S/R SEAICE_KRYLOV: Picard iterate / total, KRYLOVgamma_lin, initial norm =      31    431 0.12500E-01 0.16427E-12
(PID.TID 0000.0001)  S/R SEAICE_KRYLOV: Picard iterate / total =     31 /    431, Nb. of FGMRES iterations =      1
(PID.TID 0000.0001)  S/R SEAICE_KRYLOV: Picard iterate / total, KRYLOVgamma_lin, final   norm =      32    432 0.12500E-01 0.82135E-13
(PID.TID 0000.0001)  // =======================================================
(PID.TID 0000.0001)  // Begin KRYLOV statistics
(PID.TID 0000.0001)  // =======================================================
(PID.TID 0000.0001)  %KRYLOV_MON: time step              =          5
(PID.TID 0000.0001)  %KRYLOV_MON: Nb. of time steps      =          1
(PID.TID 0000.0001)  %KRYLOV_MON: Nb. of Picard steps    =         32
(PID.TID 0000.0001)  %KRYLOV_MON: Nb. of Krylov steps    =         31
(PID.TID 0000.0001)  %KRYLOV_MON: Nb. of Picard failures =          0
(PID.TID 0000.0001)  %KRYLOV_MON: Nb. of Krylov failures =          0
(PID.TID 0000.0001)  // =======================================================
(PID.TID 0000.0001)  // End KRYLOV statistics
(PID.TID 0000.0001)  // =======================================================
(PID.TID 0000.0001)  S/R SEAICE_KRYLOV: Total number FGMRES iterations =     31 in timestep          5
(PID.TID 0000.0001) // =======================================================
(PID.TID 0000.0001) // Begin MONITOR dynamic field statistics
(PID.TID 0000.0001) // =======================================================
(PID.TID 0000.0001) %MON time_tsnumber                =                     5
(PID.TID 0000.0001) %MON time_secondsf                =   1.2500000000000E+01
(PID.TID 0000.0001) %MON dynstat_eta_max              =   0.0000000000000E+00
(PID.TID 0000.0001) %MON dynstat_eta_min              =   0.0000000000000E+00
(PID.TID 0000.0001) %MON dynstat_eta_mean             =   0.0000000000000E+00
(PID.TID 0000.0001) %MON dynstat_eta_sd               =   0.0000000000000E+00
(PID.TID 0000.0001) %MON dynstat_eta_del2             =   0.0000000000000E+00
(PID.TID 0000.0001) %MON dynstat_uvel_max             =   9.8437500000000E-03
(PID.TID 0000.0001) %MON dynstat_uvel_min             =  -9.8437500000000E-03
(PID.TID 0000.0001) %MON dynstat_uvel_mean            =   0.0000000000000E+00
(PID.TID 0000.0001) %MON dynstat_uvel_sd              =   5.7727978755972E-03
(PID.TID 0000.0001) %MON dynstat_uvel_del2            =   1.0089048364799E-20
(PID.TID 0000.0001) %MON dynstat_vvel_max             =   9.8437500000000E-03
(PID.TID 0000.0001) %MON dynstat_vvel_min             =  -9.8437500000000E-03
(PID.TID 0000.0001) %MON dynstat_vvel_mean            =   0.0000000000000E+00
(PID.TID 0000.0001) %MON dynstat_vvel_sd              =   5.7727978755972E-03
(PID.TID 0000.0001) %MON dynstat_vvel_del2            =   1.0089048364799E-20
(PID.TID 0000.0001) %MON dynstat_wvel_max             =   1.1914062500000E-05
(PID.TID 0000.0001) %MON dynstat_wvel_min             =  -1.1914062500000E-05
(PID.TID 0000.0001) %MON dynstat_wvel_mean            =   3.4694469519536E-25
(PID.TID 0000.0001) %MON dynstat_wvel_sd              =   1.7200872247780E-06
(PID.TID 0000.0001) %MON dynstat_wvel_del2            =   2.8187489626940E-08
(PID.TID 0000.0001) %MON dynstat_theta_max            =  -1.6200000000000E+00
(PID.TID 0000.0001) %MON dynstat_theta_min            =  -1.6200000000000E+00
(PID.TID 0000.0001) %MON dynstat_theta_mean           =  -1.6200000000000E+00
(PID.TID 0000.0001) %MON dynstat_theta_sd             =   0.0000000000000E+00
(PID.TID 0000.0001) %MON dynstat_theta_del2           =   0.0000000000000E+00
(PID.TID 0000.0001) %MON dynstat_salt_max             =   3.0000000000000E+01
(PID.TID 0000.0001) %MON dynstat_salt_min             =   3.0000000000000E+01
(PID.TID 0000.0001) %MON dynstat_salt_mean            =   3.0000000000000E+01
(PID.TID 0000.0001) %MON dynstat_salt_sd              =   0.0000000000000E+00
(PID.TID 0000.0001) %MON dynstat_salt_del2            =   0.0000000000000E+00
(PID.TID 0000.0001) %MON trAdv_CFL_u_max              =   3.0761718750000E-06
(PID.TID 0000.0001) %MON trAdv_CFL_v_max              =   3.0761718750000E-06
(PID.TID 0000.0001) %MON trAdv_CFL_w_max              =   2.9785156250000E-06
(PID.TID 0000.0001) %MON advcfl_uvel_max              =   3.0761718750000E-06
(PID.TID 0000.0001) %MON advcfl_vvel_max              =   3.0761718750000E-06
(PID.TID 0000.0001) %MON advcfl_wvel_max              =   5.9570312500000E-06
(PID.TID 0000.0001) %MON advcfl_W_hf_max              =   0.0000000000000E+00
(PID.TID 0000.0001) %MON pe_b_mean                    =   0.0000000000000E+00
(PID.TID 0000.0001) %MON ke_max                       =   9.0844726562500E-05
(PID.TID 0000.0001) %MON ke_mean                      =   3.2804489135742E-05
(PID.TID 0000.0001) %MON ke_vol                       =   2.6214400000000E+12
(PID.TID 0000.0001) %MON vort_r_min                   =  -7.8125000000000E-08
(PID.TID 0000.0001) %MON vort_r_max                   =   1.2304687500000E-06
(PID.TID 0000.0001) %MON vort_a_mean                  =   1.4856000000000E-04
(PID.TID 0000.0001) %MON vort_a_sd                    =   1.5312918562496E-06
(PID.TID 0000.0001) %MON vort_p_mean                  =   1.5552375000000E-04
(PID.TID 0000.0001) %MON vort_p_sd                    =   5.5921473110222E-05
(PID.TID 0000.0001) %MON surfExpan_theta_mean         =   0.0000000000000E+00
(PID.TID 0000.0001) %MON surfExpan_salt_mean          =   1.3877787807814E-23
(PID.TID 0000.0001) // =======================================================
(PID.TID 0000.0001) // End MONITOR dynamic field statistics
(PID.TID 0000.0001) // =======================================================
(PID.TID 0000.0001) // =======================================================
(PID.TID 0000.0001) // Begin MONITOR SEAICE statistics
(PID.TID 0000.0001) // =======================================================
(PID.TID 0000.0001) %MON seaice_tsnumber              =                     5
(PID.TID 0000.0001) %MON seaice_time_sec              =   1.2500000000000E+01
(PID.TID 0000.0001) %MON seaice_uice_max              =   8.7075083194376E-03
(PID.TID 0000.0001) %MON seaice_uice_min              =  -8.9051538184804E-03
(PID.TID 0000.0001) %MON seaice_uice_mean             =  -2.0274756416741E-07
(PID.TID 0000.0001) %MON seaice_uice_sd               =   3.7467247084880E-03
(PID.TID 0000.0001) %MON seaice_uice_del2             =   1.0823960907871E-06
(PID.TID 0000.0001) %MON seaice_vice_max              =   8.4975996344843E-03
(PID.TID 0000.0001) %MON seaice_vice_min              =  -8.6077795449138E-03
(PID.TID 0000.0001) %MON seaice_vice_mean             =   9.3750706817218E-07
(PID.TID 0000.0001) %MON seaice_vice_sd               =   3.7283409081406E-03
(PID.TID 0000.0001) %MON seaice_vice_del2             =   1.0821417672282E-06
(PID.TID 0000.0001) %MON seaice_area_max              =   1.0000000000000E+00
(PID.TID 0000.0001) %MON seaice_area_min              =   9.9999895191910E-01
(PID.TID 0000.0001) %MON seaice_area_mean             =   9.9999993644473E-01
(PID.TID 0000.0001) %MON seaice_area_sd               =   1.4372813255550E-07
(PID.TID 0000.0001) %MON seaice_area_del2             =   1.5224801373584E-09
(PID.TID 0000.0001) %MON seaice_heff_max              =   3.0999865630523E-01
(PID.TID 0000.0001) %MON seaice_heff_min              =   2.9006054858748E-01
(PID.TID 0000.0001) %MON seaice_heff_mean             =   3.0067126525963E-01
(PID.TID 0000.0001) %MON seaice_heff_sd               =   5.0069228778477E-03
(PID.TID 0000.0001) %MON seaice_heff_del2             =   1.2853747845985E-05
(PID.TID 0000.0001) %MON seaice_hsnow_max             =   0.0000000000000E+00
(PID.TID 0000.0001) %MON seaice_hsnow_min             =   0.0000000000000E+00
(PID.TID 0000.0001) %MON seaice_hsnow_mean            =   0.0000000000000E+00
(PID.TID 0000.0001) %MON seaice_hsnow_sd              =   0.0000000000000E+00
(PID.TID 0000.0001) %MON seaice_hsnow_del2            =   0.0000000000000E+00
(PID.TID 0000.0001) // =======================================================
(PID.TID 0000.0001) // End MONITOR SEAICE statistics
(PID.TID 0000.0001) // =======================================================
 Computing Diagnostic #    163  SIuice       Counter:       1   Parms: UU      M1      
           Vector  Mate for  SIuice       Diagnostic #    164  SIvice   exists 
 Computing Diagnostic #    164  SIvice       Counter:       1   Parms: VV      M1      
           Vector  Mate for  SIvice       Diagnostic #    163  SIuice   exists 
 Computing Diagnostic #    149  SIheff       Counter:       1   Parms: SM      M1      
 Computing Diagnostic #    146  SIarea       Counter:       1   Parms: SM      M1      
 Computing Diagnostic #    228  SIshear      Counter:       1   Parms: SM      M1      
 Computing Diagnostic #    233  SIcohes      Counter:       1   Parms: SM      M1      
 Computing Diagnostic #    221  SIsig1       Counter:       1   Parms: SM      M1      
 Computing Diagnostic #    222  SIsig2       Counter:       1   Parms: SM      M1      
 Computing Diagnostic #    231  SIdamage     Counter:       1   Parms: SM      M1      
 Computing Diagnostic #    165  SItaux       Counter:       1   Parms: UU      U1      
           Vector  Mate for  SItaux       Diagnostic #    166  SItauy   exists 
 Computing Diagnostic #    166  SItauy       Counter:       1   Parms: VV      U1      
           Vector  Mate for  SItauy       Diagnostic #    165  SItaux   exists 
 Computing Diagnostic #    133  EXFuwind     Counter:       1   Parms: UM      U1      
 Computing Diagnostic #    134  EXFvwind     Counter:       1   Parms: VM      U1      
(PID.TID 0000.0001)  S/R SEAICE_KRYLOV: Picard iterate / total, KRYLOVgamma_lin, initial norm =       1    501 0.10000E+00 0.11204E+00
(PID.TID 0000.0001)  S/R SEAICE_KRYLOV: Picard iterate / total =      1 /    501, Nb. of FGMRES iterations =      1
(PID.TID 0000.0001)  S/R SEAICE_KRYLOV: Picard iterate / total, KRYLOVgamma_lin, initial norm =       2    502 0.50000E-01 0.27045E-03
(PID.TID 0000.0001)  S/R SEAICE_KRYLOV: Picard iterate / total =      2 /    502, Nb. of FGMRES iterations =      1
(PID.TID 0000.0001)  S/R SEAICE_KRYLOV: Picard iterate / total, KRYLOVgamma_lin, initial norm =       3    503 0.50000E-01 0.29601E-04
(PID.TID 0000.0001)  S/R SEAICE_KRYLOV: Picard iterate / total =      3 /    503, Nb. of FGMRES iterations =      1
(PID.TID 0000.0001)  S/R SEAICE_KRYLOV: Picard iterate / total, KRYLOVgamma_lin, initial norm =       4    504 0.33333E-01 0.22666E-04
(PID.TID 0000.0001)  S/R SEAICE_KRYLOV: Picard iterate / total =      4 /    504, Nb. of FGMRES iterations =      1
(PID.TID 0000.0001)  S/R SEAICE_KRYLOV: Picard iterate / total, KRYLOVgamma_lin, initial norm =       5    505 0.33333E-01 0.10643E-04
(PID.TID 0000.0001)  S/R SEAICE_KRYLOV: Picard iterate / total =      5 /    505, Nb. of FGMRES iterations =      1
(PID.TID 0000.0001)  S/R SEAICE_KRYLOV: Picard iterate / total, KRYLOVgamma_lin, initial norm =       6    506 0.33333E-01 0.53796E-05
(PID.TID 0000.0001)  S/R SEAICE_KRYLOV: Picard iterate / total =      6 /    506, Nb. of FGMRES iterations =      1
(PID.TID 0000.0001)  S/R SEAICE_KRYLOV: Picard iterate / total, KRYLOVgamma_lin, initial norm =       7    507 0.33333E-01 0.26849E-05
(PID.TID 0000.0001)  S/R SEAICE_KRYLOV: Picard iterate / total =      7 /    507, Nb. of FGMRES iterations =      1
(PID.TID 0000.0001)  S/R SEAICE_KRYLOV: Picard iterate / total, KRYLOVgamma_lin, initial norm =       8    508 0.25000E-01 0.13429E-05
(PID.TID 0000.0001)  S/R SEAICE_KRYLOV: Picard iterate / total =      8 /    508, Nb. of FGMRES iterations =      1
(PID.TID 0000.0001)  S/R SEAICE_KRYLOV: Picard iterate / total, KRYLOVgamma_lin, initial norm =       9    509 0.20000E-01 0.67139E-06
(PID.TID 0000.0001)  S/R SEAICE_KRYLOV: Picard iterate / total =      9 /    509, Nb. of FGMRES iterations =      1
(PID.TID 0000.0001)  S/R SEAICE_KRYLOV: Picard iterate / total, KRYLOVgamma_lin, initial norm =      10    510 0.12500E-01 0.33570E-06
(PID.TID 0000.0001)  S/R SEAICE_KRYLOV: Picard iterate / total =     10 /    510, Nb. of FGMRES iterations =      1
(PID.TID 0000.0001)  S/R SEAICE_KRYLOV: Picard iterate / total, KRYLOVgamma_lin, initial norm =      11    511 0.12500E-01 0.16785E-06
(PID.TID 0000.0001)  S/R SEAICE_KRYLOV: Picard iterate / total =     11 /    511, Nb. of FGMRES iterations =      1
(PID.TID 0000.0001)  S/R SEAICE_KRYLOV: Picard iterate / total, KRYLOVgamma_lin, initial norm =      12    512 0.12500E-01 0.83925E-07
(PID.TID 0000.0001)  S/R SEAICE_KRYLOV: Picard iterate / total =     12 /    512, Nb. of FGMRES iterations =      1
(PID.TID 0000.0001)  S/R SEAICE_KRYLOV: Picard iterate / total, KRYLOVgamma_lin, initial norm =      13    513 0.12500E-01 0.41962E-07
(PID.TID 0000.0001)  S/R SEAICE_KRYLOV: Picard iterate / total =     13 /    513, Nb. of FGMRES iterations =      1
(PID.TID 0000.0001)  S/R SEAICE_KRYLOV: Picard iterate / total, KRYLOVgamma_lin, initial norm =      14    514 0.12500E-01 0.20981E-07
(PID.TID 0000.0001)  S/R SEAICE_KRYLOV: Picard iterate / total =     14 /    514, Nb. of FGMRES iterations =      1
(PID.TID 0000.0001)  S/R SEAICE_KRYLOV: Picard iterate / total, KRYLOVgamma_lin, initial norm =      15    515 0.12500E-01 0.10491E-07
(PID.TID 0000.0001)  S/R SEAICE_KRYLOV: Picard iterate / total =     15 /    515, Nb. of FGMRES iterations =      1
(PID.TID 0000.0001)  S/R SEAICE_KRYLOV: Picard iterate / total, KRYLOVgamma_lin, initial norm =      16    516 0.12500E-01 0.52453E-08
(PID.TID 0000.0001)  S/R SEAICE_KRYLOV: Picard iterate / total =     16 /    516, Nb. of FGMRES iterations =      1
(PID.TID 0000.0001)  S/R SEAICE_KRYLOV: Picard iterate / total, KRYLOVgamma_lin, initial norm =      17    517 0.12500E-01 0.26226E-08
(PID.TID 0000.0001)  S/R SEAICE_KRYLOV: Picard iterate / total =     17 /    517, Nb. of FGMRES iterations =      1
(PID.TID 0000.0001)  S/R SEAICE_KRYLOV: Picard iterate / total, KRYLOVgamma_lin, initial norm =      18    518 0.12500E-01 0.13113E-08
(PID.TID 0000.0001)  S/R SEAICE_KRYLOV: Picard iterate / total =     18 /    518, Nb. of FGMRES iterations =      1
(PID.TID 0000.0001)  S/R SEAICE_KRYLOV: Picard iterate / total, KRYLOVgamma_lin, initial norm =      19    519 0.12500E-01 0.65566E-09
(PID.TID 0000.0001)  S/R SEAICE_KRYLOV: Picard iterate / total =     19 /    519, Nb. of FGMRES iterations =      1
(PID.TID 0000.0001)  S/R SEAICE_KRYLOV: Picard iterate / total, KRYLOVgamma_lin, initial norm =      20    520 0.12500E-01 0.32783E-09
(PID.TID 0000.0001)  S/R SEAICE_KRYLOV: Picard iterate / total =     20 /    520, Nb. of FGMRES iterations =      1
(PID.TID 0000.0001)  S/R SEAICE_KRYLOV: Picard iterate / total, KRYLOVgamma_lin, initial norm =      21    521 0.12500E-01 0.16392E-09
(PID.TID 0000.0001)  S/R SEAICE_KRYLOV: Picard iterate / total =     21 /    521, Nb. of FGMRES iterations =      1
(PID.TID 0000.0001)  S/R SEAICE_KRYLOV: Picard iterate / total, KRYLOVgamma_lin, initial norm =      22    522 0.12500E-01 0.81958E-10
(PID.TID 0000.0001)  S/R SEAICE_KRYLOV: Picard iterate / total =     22 /    522, Nb. of FGMRES iterations =      1
(PID.TID 0000.0001)  S/R SEAICE_KRYLOV: Picard iterate / total, KRYLOVgamma_lin, initial norm =      23    523 0.12500E-01 0.40979E-10
(PID.TID 0000.0001)  S/R SEAICE_KRYLOV: Picard iterate / total =     23 /    523, Nb. of FGMRES iterations =      1
(PID.TID 0000.0001)  S/R SEAICE_KRYLOV: Picard iterate / total, KRYLOVgamma_lin, initial norm =      24    524 0.12500E-01 0.20489E-10
(PID.TID 0000.0001)  S/R SEAICE_KRYLOV: Picard iterate / total =     24 /    524, Nb. of FGMRES iterations =      1
(PID.TID 0000.0001)  S/R SEAICE_KRYLOV: Picard iterate / total, KRYLOVgamma_lin, initial norm =      25    525 0.12500E-01 0.10245E-10
(PID.TID 0000.0001)  S/R SEAICE_KRYLOV: Picard iterate / total =     25 /    525, Nb. of FGMRES iterations =      1
(PID.TID 0000.0001)  S/R SEAICE_KRYLOV: Picard iterate / total, KRYLOVgamma_lin, initial norm =      26    526 0.12500E-01 0.51224E-11
(PID.TID 0000.0001)  S/R SEAICE_KRYLOV: Picard iterate / total =     26 /    526, Nb. of FGMRES iterations =      1
(PID.TID 0000.0001)  S/R SEAICE_KRYLOV: Picard iterate / total, KRYLOVgamma_lin, initial norm =      27    527 0.12500E-01 0.25612E-11
(PID.TID 0000.0001)  S/R SEAICE_KRYLOV: Picard iterate / total =     27 /    527, Nb. of FGMRES iterations =      1
(PID.TID 0000.0001)  S/R SEAICE_KRYLOV: Picard iterate / total, KRYLOVgamma_lin, initial norm =      28    528 0.12500E-01 0.12806E-11
(PID.TID 0000.0001)  S/R SEAICE_KRYLOV: Picard iterate / total =     28 /    528, Nb. of FGMRES iterations =      1
(PID.TID 0000.0001)  S/R SEAICE_KRYLOV: Picard iterate / total, KRYLOVgamma_lin, initial norm =      29    529 0.12500E-01 0.64029E-12
(PID.TID 0000.0001)  S/R SEAICE_KRYLOV: Picard iterate / total =     29 /    529, Nb. of FGMRES iterations =      1
(PID.TID 0000.0001)  S/R SEAICE_KRYLOV: Picard iterate / total, KRYLOVgamma_lin, initial norm =      30    530 0.12500E-01 0.32015E-12
(PID.TID 0000.0001)  S/R SEAICE_KRYLOV: Picard iterate / total =     30 /    530, Nb. of FGMRES iterations =      1
(PID.TID 0000.0001)  S/R SEAICE_KRYLOV: Picard iterate / total, KRYLOVgamma_lin, initial norm =      31    531 0.12500E-01 0.16007E-12
(PID.TID 0000.0001)  S/R SEAICE_KRYLOV: Picard iterate / total =     31 /    531, Nb. of FGMRES iterations =      1
(PID.TID 0000.0001)  S/R SEAICE_KRYLOV: Picard iterate / total, KRYLOVgamma_lin, final   norm =      32    532 0.12500E-01 0.80037E-13
(PID.TID 0000.0001)  // =======================================================
(PID.TID 0000.0001)  // Begin KRYLOV statistics
(PID.TID 0000.0001)  // =======================================================
(PID.TID 0000.0001)  %KRYLOV_MON: time step              =          6
(PID.TID 0000.0001)  %KRYLOV_MON: Nb. of time steps      =          1
(PID.TID 0000.0001)  %KRYLOV_MON: Nb. of Picard steps    =         32
(PID.TID 0000.0001)  %KRYLOV_MON: Nb. of Krylov steps    =         31
(PID.TID 0000.0001)  %KRYLOV_MON: Nb. of Picard failures =          0
(PID.TID 0000.0001)  %KRYLOV_MON: Nb. of Krylov failures =          0
(PID.TID 0000.0001)  // =======================================================
(PID.TID 0000.0001)  // End KRYLOV statistics
(PID.TID 0000.0001)  // =======================================================
(PID.TID 0000.0001)  S/R SEAICE_KRYLOV: Total number FGMRES iterations =     31 in timestep          6
(PID.TID 0000.0001) // =======================================================
(PID.TID 0000.0001) // Begin MONITOR dynamic field statistics
(PID.TID 0000.0001) // =======================================================
(PID.TID 0000.0001) %MON time_tsnumber                =                     6
(PID.TID 0000.0001) %MON time_secondsf                =   1.5000000000000E+01
(PID.TID 0000.0001) %MON dynstat_eta_max              =   0.0000000000000E+00
(PID.TID 0000.0001) %MON dynstat_eta_min              =   0.0000000000000E+00
(PID.TID 0000.0001) %MON dynstat_eta_mean             =   0.0000000000000E+00
(PID.TID 0000.0001) %MON dynstat_eta_sd               =   0.0000000000000E+00
(PID.TID 0000.0001) %MON dynstat_eta_del2             =   0.0000000000000E+00
(PID.TID 0000.0001) %MON dynstat_uvel_max             =   9.8437500000000E-03
(PID.TID 0000.0001) %MON dynstat_uvel_min             =  -9.8437500000000E-03
(PID.TID 0000.0001) %MON dynstat_uvel_mean            =   0.0000000000000E+00
(PID.TID 0000.0001) %MON dynstat_uvel_sd              =   5.7727978755972E-03
(PID.TID 0000.0001) %MON dynstat_uvel_del2            =   1.0089048364799E-20
(PID.TID 0000.0001) %MON dynstat_vvel_max             =   9.8437500000000E-03
(PID.TID 0000.0001) %MON dynstat_vvel_min             =  -9.8437500000000E-03
(PID.TID 0000.0001) %MON dynstat_vvel_mean            =   0.0000000000000E+00
(PID.TID 0000.0001) %MON dynstat_vvel_sd              =   5.7727978755972E-03
(PID.TID 0000.0001) %MON dynstat_vvel_del2            =   1.0089048364799E-20
(PID.TID 0000.0001) %MON dynstat_wvel_max             =   1.1914062500000E-05
(PID.TID 0000.0001) %MON dynstat_wvel_min             =  -1.1914062500000E-05
(PID.TID 0000.0001) %MON dynstat_wvel_mean            =   3.4694469519536E-25
(PID.TID 0000.0001) %MON dynstat_wvel_sd              =   1.7200872247780E-06
(PID.TID 0000.0001) %MON dynstat_wvel_del2            =   2.8187489626940E-08
(PID.TID 0000.0001) %MON dynstat_theta_max            =  -1.6200000000000E+00
(PID.TID 0000.0001) %MON dynstat_theta_min            =  -1.6200000000000E+00
(PID.TID 0000.0001) %MON dynstat_theta_mean           =  -1.6200000000000E+00
(PID.TID 0000.0001) %MON dynstat_theta_sd             =   0.0000000000000E+00
(PID.TID 0000.0001) %MON dynstat_theta_del2           =   0.0000000000000E+00
(PID.TID 0000.0001) %MON dynstat_salt_max             =   3.0000000000000E+01
(PID.TID 0000.0001) %MON dynstat_salt_min             =   3.0000000000000E+01
(PID.TID 0000.0001) %MON dynstat_salt_mean            =   3.0000000000000E+01
(PID.TID 0000.0001) %MON dynstat_salt_sd              =   0.0000000000000E+00
(PID.TID 0000.0001) %MON dynstat_salt_del2            =   0.0000000000000E+00
(PID.TID 0000.0001) %MON trAdv_CFL_u_max              =   3.0761718750000E-06
(PID.TID 0000.0001) %MON trAdv_CFL_v_max              =   3.0761718750000E-06
(PID.TID 0000.0001) %MON trAdv_CFL_w_max              =   2.9785156250000E-06
(PID.TID 0000.0001) %MON advcfl_uvel_max              =   3.0761718750000E-06
(PID.TID 0000.0001) %MON advcfl_vvel_max              =   3.0761718750000E-06
(PID.TID 0000.0001) %MON advcfl_wvel_max              =   5.9570312500000E-06
(PID.TID 0000.0001) %MON advcfl_W_hf_max              =   0.0000000000000E+00
(PID.TID 0000.0001) %MON pe_b_mean                    =   0.0000000000000E+00
(PID.TID 0000.0001) %MON ke_max                       =   9.0844726562500E-05
(PID.TID 0000.0001) %MON ke_mean                      =   3.2804489135742E-05
(PID.TID 0000.0001) %MON ke_vol                       =   2.6214400000000E+12
(PID.TID 0000.0001) %MON vort_r_min                   =  -7.8125000000000E-08
(PID.TID 0000.0001) %MON vort_r_max                   =   1.2304687500000E-06
(PID.TID 0000.0001) %MON vort_a_mean                  =   1.4856000000000E-04
(PID.TID 0000.0001) %MON vort_a_sd                    =   1.5312918562496E-06
(PID.TID 0000.0001) %MON vort_p_mean                  =   1.5552375000000E-04
(PID.TID 0000.0001) %MON vort_p_sd                    =   5.5921473110222E-05
(PID.TID 0000.0001) %MON surfExpan_theta_mean         =   0.0000000000000E+00
(PID.TID 0000.0001) %MON surfExpan_salt_mean          =   1.3877787807814E-23
(PID.TID 0000.0001) // =======================================================
(PID.TID 0000.0001) // End MONITOR dynamic field statistics
(PID.TID 0000.0001) // =======================================================
(PID.TID 0000.0001) // =======================================================
(PID.TID 0000.0001) // Begin MONITOR SEAICE statistics
(PID.TID 0000.0001) // =======================================================
(PID.TID 0000.0001) %MON seaice_tsnumber              =                     6
(PID.TID 0000.0001) %MON seaice_time_sec              =   1.5000000000000E+01
(PID.TID 0000.0001) %MON seaice_uice_max              =   1.0426169936248E-02
(PID.TID 0000.0001) %MON seaice_uice_min              =  -1.0657019269532E-02
(PID.TID 0000.0001) %MON seaice_uice_mean             =  -2.4226297300696E-07
(PID.TID 0000.0001) %MON seaice_uice_sd               =   4.4873994171476E-03
(PID.TID 0000.0001) %MON seaice_uice_del2             =   1.3197022414986E-06
(PID.TID 0000.0001) %MON seaice_vice_max              =   1.0176591236013E-02
(PID.TID 0000.0001) %MON seaice_vice_min              =  -1.0306026246643E-02
(PID.TID 0000.0001) %MON seaice_vice_mean             =   1.1286849041141E-06
(PID.TID 0000.0001) %MON seaice_vice_sd               =   4.4654740852228E-03
(PID.TID 0000.0001) %MON seaice_vice_del2             =   1.3202000612090E-06
(PID.TID 0000.0001) %MON seaice_area_max              =   1.0000000000000E+00
(PID.TID 0000.0001) %MON seaice_area_min              =   9.9999854642326E-01
(PID.TID 0000.0001) %MON seaice_area_mean             =   9.9999991129748E-01
(PID.TID 0000.0001) %MON seaice_area_sd               =   1.9841075874822E-07
(PID.TID 0000.0001) %MON seaice_area_del2             =   2.0891647683205E-09
(PID.TID 0000.0001) %MON seaice_heff_max              =   3.0999864964086E-01
(PID.TID 0000.0001) %MON seaice_heff_min              =   2.9006054169452E-01
(PID.TID 0000.0001) %MON seaice_heff_mean             =   3.0067126525963E-01
(PID.TID 0000.0001) %MON seaice_heff_sd               =   5.0069230296338E-03
(PID.TID 0000.0001) %MON seaice_heff_del2             =   1.2853747828290E-05
(PID.TID 0000.0001) %MON seaice_hsnow_max             =   0.0000000000000E+00
(PID.TID 0000.0001) %MON seaice_hsnow_min             =   0.0000000000000E+00
(PID.TID 0000.0001) %MON seaice_hsnow_mean            =   0.0000000000000E+00
(PID.TID 0000.0001) %MON seaice_hsnow_sd              =   0.0000000000000E+00
(PID.TID 0000.0001) %MON seaice_hsnow_del2            =   0.0000000000000E+00
(PID.TID 0000.0001) // =======================================================
(PID.TID 0000.0001) // End MONITOR SEAICE statistics
(PID.TID 0000.0001) // =======================================================
 Computing Diagnostic #    163  SIuice       Counter:       1   Parms: UU      M1      
           Vector  Mate for  SIuice       Diagnostic #    164  SIvice   exists 
 Computing Diagnostic #    164  SIvice       Counter:       1   Parms: VV      M1      
           Vector  Mate for  SIvice       Diagnostic #    163  SIuice   exists 
 Computing Diagnostic #    149  SIheff       Counter:       1   Parms: SM      M1      
 Computing Diagnostic #    146  SIarea       Counter:       1   Parms: SM      M1      
 Computing Diagnostic #    228  SIshear      Counter:       1   Parms: SM      M1      
 Computing Diagnostic #    233  SIcohes      Counter:       1   Parms: SM      M1      
 Computing Diagnostic #    221  SIsig1       Counter:       1   Parms: SM      M1      
 Computing Diagnostic #    222  SIsig2       Counter:       1   Parms: SM      M1      
 Computing Diagnostic #    231  SIdamage     Counter:       1   Parms: SM      M1      
 Computing Diagnostic #    165  SItaux       Counter:       1   Parms: UU      U1      
           Vector  Mate for  SItaux       Diagnostic #    166  SItauy   exists 
 Computing Diagnostic #    166  SItauy       Counter:       1   Parms: VV      U1      
           Vector  Mate for  SItauy       Diagnostic #    165  SItaux   exists 
 Computing Diagnostic #    133  EXFuwind     Counter:       1   Parms: UM      U1      
 Computing Diagnostic #    134  EXFvwind     Counter:       1   Parms: VM      U1      
(PID.TID 0000.0001)  S/R SEAICE_KRYLOV: Picard iterate / total, KRYLOVgamma_lin, initial norm =       1    601 0.10000E+00 0.11158E+00
(PID.TID 0000.0001)  S/R SEAICE_KRYLOV: Picard iterate / total =      1 /    601, Nb. of FGMRES iterations =      1
(PID.TID 0000.0001)  S/R SEAICE_KRYLOV: Picard iterate / total, KRYLOVgamma_lin, initial norm =       2    602 0.50000E-01 0.26619E-03
(PID.TID 0000.0001)  S/R SEAICE_KRYLOV: Picard iterate / total =      2 /    602, Nb. of FGMRES iterations =      1
(PID.TID 0000.0001)  S/R SEAICE_KRYLOV: Picard iterate / total, KRYLOVgamma_lin, initial norm =       3    603 0.50000E-01 0.31606E-04
(PID.TID 0000.0001)  S/R SEAICE_KRYLOV: Picard iterate / total =      3 /    603, Nb. of FGMRES iterations =      1
(PID.TID 0000.0001)  S/R SEAICE_KRYLOV: Picard iterate / total, KRYLOVgamma_lin, initial norm =       4    604 0.33333E-01 0.23025E-04
(PID.TID 0000.0001)  S/R SEAICE_KRYLOV: Picard iterate / total =      4 /    604, Nb. of FGMRES iterations =      1
(PID.TID 0000.0001)  S/R SEAICE_KRYLOV: Picard iterate / total, KRYLOVgamma_lin, initial norm =       5    605 0.33333E-01 0.10861E-04
(PID.TID 0000.0001)  S/R SEAICE_KRYLOV: Picard iterate / total =      5 /    605, Nb. of FGMRES iterations =      1
(PID.TID 0000.0001)  S/R SEAICE_KRYLOV: Picard iterate / total, KRYLOVgamma_lin, initial norm =       6    606 0.33333E-01 0.54853E-05
(PID.TID 0000.0001)  S/R SEAICE_KRYLOV: Picard iterate / total =      6 /    606, Nb. of FGMRES iterations =      1
(PID.TID 0000.0001)  S/R SEAICE_KRYLOV: Picard iterate / total, KRYLOVgamma_lin, initial norm =       7    607 0.33333E-01 0.27380E-05
(PID.TID 0000.0001)  S/R SEAICE_KRYLOV: Picard iterate / total =      7 /    607, Nb. of FGMRES iterations =      1
(PID.TID 0000.0001)  S/R SEAICE_KRYLOV: Picard iterate / total, KRYLOVgamma_lin, initial norm =       8    608 0.25000E-01 0.13694E-05
(PID.TID 0000.0001)  S/R SEAICE_KRYLOV: Picard iterate / total =      8 /    608, Nb. of FGMRES iterations =      1
(PID.TID 0000.0001)  S/R SEAICE_KRYLOV: Picard iterate / total, KRYLOVgamma_lin, initial norm =       9    609 0.20000E-01 0.68466E-06
(PID.TID 0000.0001)  S/R SEAICE_KRYLOV: Picard iterate / total =      9 /    609, Nb. of FGMRES iterations =      1
(PID.TID 0000.0001)  S/R SEAICE_KRYLOV: Picard iterate / total, KRYLOVgamma_lin, initial norm =      10    610 0.12500E-01 0.34233E-06
(PID.TID 0000.0001)  S/R SEAICE_KRYLOV: Picard iterate / total =     10 /    610, Nb. of FGMRES iterations =      1
(PID.TID 0000.0001)  S/R SEAICE_KRYLOV: Picard iterate / total, KRYLOVgamma_lin, initial norm =      11    611 0.12500E-01 0.17117E-06
(PID.TID 0000.0001)  S/R SEAICE_KRYLOV: Picard iterate / total =     11 /    611, Nb. of FGMRES iterations =      1
(PID.TID 0000.0001)  S/R SEAICE_KRYLOV: Picard iterate / total, KRYLOVgamma_lin, initial norm =      12    612 0.12500E-01 0.85584E-07
(PID.TID 0000.0001)  S/R SEAICE_KRYLOV: Picard iterate / total =     12 /    612, Nb. of FGMRES iterations =      1
(PID.TID 0000.0001)  S/R SEAICE_KRYLOV: Picard iterate / total, KRYLOVgamma_lin, initial norm =      13    613 0.12500E-01 0.42792E-07
(PID.TID 0000.0001)  S/R SEAICE_KRYLOV: Picard iterate / total =     13 /    613, Nb. of FGMRES iterations =      1
(PID.TID 0000.0001)  S/R SEAICE_KRYLOV: Picard iterate / total, KRYLOVgamma_lin, initial norm =      14    614 0.12500E-01 0.21396E-07
(PID.TID 0000.0001)  S/R SEAICE_KRYLOV: Picard iterate / total =     14 /    614, Nb. of FGMRES iterations =      1
(PID.TID 0000.0001)  S/R SEAICE_KRYLOV: Picard iterate / total, KRYLOVgamma_lin, initial norm =      15    615 0.12500E-01 0.10698E-07
(PID.TID 0000.0001)  S/R SEAICE_KRYLOV: Picard iterate / total =     15 /    615, Nb. of FGMRES iterations =      1
(PID.TID 0000.0001)  S/R SEAICE_KRYLOV: Picard iterate / total, KRYLOVgamma_lin, initial norm =      16    616 0.12500E-01 0.53490E-08
(PID.TID 0000.0001)  S/R SEAICE_KRYLOV: Picard iterate / total =     16 /    616, Nb. of FGMRES iterations =      1
(PID.TID 0000.0001)  S/R SEAICE_KRYLOV: Picard iterate / total, KRYLOVgamma_lin, initial norm =      17    617 0.12500E-01 0.26745E-08
(PID.TID 0000.0001)  S/R SEAICE_KRYLOV: Picard iterate / total =     17 /    617, Nb. of FGMRES iterations =      1
(PID.TID 0000.0001)  S/R SEAICE_KRYLOV: Picard iterate / total, KRYLOVgamma_lin, initial norm =      18    618 0.12500E-01 0.13372E-08
(PID.TID 0000.0001)  S/R SEAICE_KRYLOV: Picard iterate / total =     18 /    618, Nb. of FGMRES iterations =      1
(PID.TID 0000.0001)  S/R SEAICE_KRYLOV: Picard iterate / total, KRYLOVgamma_lin, initial norm =      19    619 0.12500E-01 0.66862E-09
(PID.TID 0000.0001)  S/R SEAICE_KRYLOV: Picard iterate / total =     19 /    619, Nb. of FGMRES iterations =      1
(PID.TID 0000.0001)  S/R SEAICE_KRYLOV: Picard iterate / total, KRYLOVgamma_lin, initial norm =      20    620 0.12500E-01 0.33431E-09
(PID.TID 0000.0001)  S/R SEAICE_KRYLOV: Picard iterate / total =     20 /    620, Nb. of FGMRES iterations =      1
(PID.TID 0000.0001)  S/R SEAICE_KRYLOV: Picard iterate / total, KRYLOVgamma_lin, initial norm =      21    621 0.12500E-01 0.16716E-09
(PID.TID 0000.0001)  S/R SEAICE_KRYLOV: Picard iterate / total =     21 /    621, Nb. of FGMRES iterations =      1
(PID.TID 0000.0001)  S/R SEAICE_KRYLOV: Picard iterate / total, KRYLOVgamma_lin, initial norm =      22    622 0.12500E-01 0.83578E-10
(PID.TID 0000.0001)  S/R SEAICE_KRYLOV: Picard iterate / total =     22 /    622, Nb. of FGMRES iterations =      1
(PID.TID 0000.0001)  S/R SEAICE_KRYLOV: Picard iterate / total, KRYLOVgamma_lin, initial norm =      23    623 0.12500E-01 0.41789E-10
(PID.TID 0000.0001)  S/R SEAICE_KRYLOV: Picard iterate / total =     23 /    623, Nb. of FGMRES iterations =      1
(PID.TID 0000.0001)  S/R SEAICE_KRYLOV: Picard iterate / total, KRYLOVgamma_lin, initial norm =      24    624 0.12500E-01 0.20894E-10
(PID.TID 0000.0001)  S/R SEAICE_KRYLOV: Picard iterate / total =     24 /    624, Nb. of FGMRES iterations =      1
(PID.TID 0000.0001)  S/R SEAICE_KRYLOV: Picard iterate / total, KRYLOVgamma_lin, initial norm =      25    625 0.12500E-01 0.10447E-10
(PID.TID 0000.0001)  S/R SEAICE_KRYLOV: Picard iterate / total =     25 /    625, Nb. of FGMRES iterations =      1
(PID.TID 0000.0001)  S/R SEAICE_KRYLOV: Picard iterate / total, KRYLOVgamma_lin, initial norm =      26    626 0.12500E-01 0.52236E-11
(PID.TID 0000.0001)  S/R SEAICE_KRYLOV: Picard iterate / total =     26 /    626, Nb. of FGMRES iterations =      1
(PID.TID 0000.0001)  S/R SEAICE_KRYLOV: Picard iterate / total, KRYLOVgamma_lin, initial norm =      27    627 0.12500E-01 0.26118E-11
(PID.TID 0000.0001)  S/R SEAICE_KRYLOV: Picard iterate / total =     27 /    627, Nb. of FGMRES iterations =      1
(PID.TID 0000.0001)  S/R SEAICE_KRYLOV: Picard iterate / total, KRYLOVgamma_lin, initial norm =      28    628 0.12500E-01 0.13059E-11
(PID.TID 0000.0001)  S/R SEAICE_KRYLOV: Picard iterate / total =     28 /    628, Nb. of FGMRES iterations =      1
(PID.TID 0000.0001)  S/R SEAICE_KRYLOV: Picard iterate / total, KRYLOVgamma_lin, initial norm =      29    629 0.12500E-01 0.65295E-12
(PID.TID 0000.0001)  S/R SEAICE_KRYLOV: Picard iterate / total =     29 /    629, Nb. of FGMRES iterations =      1
(PID.TID 0000.0001)  S/R SEAICE_KRYLOV: Picard iterate / total, KRYLOVgamma_lin, initial norm =      30    630 0.12500E-01 0.32648E-12
(PID.TID 0000.0001)  S/R SEAICE_KRYLOV: Picard iterate / total =     30 /    630, Nb. of FGMRES iterations =      1
(PID.TID 0000.0001)  S/R SEAICE_KRYLOV: Picard iterate / total, KRYLOVgamma_lin, initial norm =      31    631 0.12500E-01 0.16324E-12
(PID.TID 0000.0001)  S/R SEAICE_KRYLOV: Picard iterate / total =     31 /    631, Nb. of FGMRES iterations =      1
(PID.TID 0000.0001)  S/R SEAICE_KRYLOV: Picard iterate / total, KRYLOVgamma_lin, final   norm =      32    632 0.12500E-01 0.81620E-13
(PID.TID 0000.0001)  // =======================================================
(PID.TID 0000.0001)  // Begin KRYLOV statistics
(PID.TID 0000.0001)  // =======================================================
(PID.TID 0000.0001)  %KRYLOV_MON: time step              =          7
(PID.TID 0000.0001)  %KRYLOV_MON: Nb. of time steps      =          1
(PID.TID 0000.0001)  %KRYLOV_MON: Nb. of Picard steps    =         32
(PID.TID 0000.0001)  %KRYLOV_MON: Nb. of Krylov steps    =         31
(PID.TID 0000.0001)  %KRYLOV_MON: Nb. of Picard failures =          0
(PID.TID 0000.0001)  %KRYLOV_MON: Nb. of Krylov failures =          0
(PID.TID 0000.0001)  // =======================================================
(PID.TID 0000.0001)  // End KRYLOV statistics
(PID.TID 0000.0001)  // =======================================================
(PID.TID 0000.0001)  S/R SEAICE_KRYLOV: Total number FGMRES iterations =     31 in timestep          7
(PID.TID 0000.0001) // =======================================================
(PID.TID 0000.0001) // Begin MONITOR dynamic field statistics
(PID.TID 0000.0001) // =======================================================
(PID.TID 0000.0001) %MON time_tsnumber                =                     7
(PID.TID 0000.0001) %MON time_secondsf                =   1.7500000000000E+01
(PID.TID 0000.0001) %MON dynstat_eta_max              =   0.0000000000000E+00
(PID.TID 0000.0001) %MON dynstat_eta_min              =   0.0000000000000E+00
(PID.TID 0000.0001) %MON dynstat_eta_mean             =   0.0000000000000E+00
(PID.TID 0000.0001) %MON dynstat_eta_sd               =   0.0000000000000E+00
(PID.TID 0000.0001) %MON dynstat_eta_del2             =   0.0000000000000E+00
(PID.TID 0000.0001) %MON dynstat_uvel_max             =   9.8437500000000E-03
(PID.TID 0000.0001) %MON dynstat_uvel_min             =  -9.8437500000000E-03
(PID.TID 0000.0001) %MON dynstat_uvel_mean            =   0.0000000000000E+00
(PID.TID 0000.0001) %MON dynstat_uvel_sd              =   5.7727978755972E-03
(PID.TID 0000.0001) %MON dynstat_uvel_del2            =   1.0089048364799E-20
(PID.TID 0000.0001) %MON dynstat_vvel_max             =   9.8437500000000E-03
(PID.TID 0000.0001) %MON dynstat_vvel_min             =  -9.8437500000000E-03
(PID.TID 0000.0001) %MON dynstat_vvel_mean            =   0.0000000000000E+00
(PID.TID 0000.0001) %MON dynstat_vvel_sd              =   5.7727978755972E-03
(PID.TID 0000.0001) %MON dynstat_vvel_del2            =   1.0089048364799E-20
(PID.TID 0000.0001) %MON dynstat_wvel_max             =   1.1914062500000E-05
(PID.TID 0000.0001) %MON dynstat_wvel_min             =  -1.1914062500000E-05
(PID.TID 0000.0001) %MON dynstat_wvel_mean            =   3.4694469519536E-25
(PID.TID 0000.0001) %MON dynstat_wvel_sd              =   1.7200872247780E-06
(PID.TID 0000.0001) %MON dynstat_wvel_del2            =   2.8187489626940E-08
(PID.TID 0000.0001) %MON dynstat_theta_max            =  -1.6200000000000E+00
(PID.TID 0000.0001) %MON dynstat_theta_min            =  -1.6200000000000E+00
(PID.TID 0000.0001) %MON dynstat_theta_mean           =  -1.6200000000000E+00
(PID.TID 0000.0001) %MON dynstat_theta_sd             =   0.0000000000000E+00
(PID.TID 0000.0001) %MON dynstat_theta_del2           =   0.0000000000000E+00
(PID.TID 0000.0001) %MON dynstat_salt_max             =   3.0000000000000E+01
(PID.TID 0000.0001) %MON dynstat_salt_min             =   3.0000000000000E+01
(PID.TID 0000.0001) %MON dynstat_salt_mean            =   3.0000000000000E+01
(PID.TID 0000.0001) %MON dynstat_salt_sd              =   0.0000000000000E+00
(PID.TID 0000.0001) %MON dynstat_salt_del2            =   0.0000000000000E+00
(PID.TID 0000.0001) %MON trAdv_CFL_u_max              =   3.0761718750000E-06
(PID.TID 0000.0001) %MON trAdv_CFL_v_max              =   3.0761718750000E-06
(PID.TID 0000.0001) %MON trAdv_CFL_w_max              =   2.9785156250000E-06
(PID.TID 0000.0001) %MON advcfl_uvel_max              =   3.0761718750000E-06
(PID.TID 0000.0001) %MON advcfl_vvel_max              =   3.0761718750000E-06
(PID.TID 0000.0001) %MON advcfl_wvel_max              =   5.9570312500000E-06
(PID.TID 0000.0001) %MON advcfl_W_hf_max              =   0.0000000000000E+00
(PID.TID 0000.0001) %MON pe_b_mean                    =   0.0000000000000E+00
(PID.TID 0000.0001) %MON ke_max                       =   9.0844726562500E-05
(PID.TID 0000.0001) %MON ke_mean                      =   3.2804489135742E-05
(PID.TID 0000.0001) %MON ke_vol                       =   2.6214400000000E+12
(PID.TID 0000.0001) %MON vort_r_min                   =  -7.8125000000000E-08
(PID.TID 0000.0001) %MON vort_r_max                   =   1.2304687500000E-06
(PID.TID 0000.0001) %MON vort_a_mean                  =   1.4856000000000E-04
(PID.TID 0000.0001) %MON vort_a_sd                    =   1.5312918562496E-06
(PID.TID 0000.0001) %MON vort_p_mean                  =   1.5552375000000E-04
(PID.TID 0000.0001) %MON vort_p_sd                    =   5.5921473110222E-05
(PID.TID 0000.0001) %MON surfExpan_theta_mean         =   0.0000000000000E+00
(PID.TID 0000.0001) %MON surfExpan_salt_mean          =   1.3877787807814E-23
(PID.TID 0000.0001) // =======================================================
(PID.TID 0000.0001) // End MONITOR dynamic field statistics
(PID.TID 0000.0001) // =======================================================
(PID.TID 0000.0001) // =======================================================
(PID.TID 0000.0001) // Begin MONITOR SEAICE statistics
(PID.TID 0000.0001) // =======================================================
(PID.TID 0000.0001) %MON seaice_tsnumber              =                     7
(PID.TID 0000.0001) %MON seaice_time_sec              =   1.7500000000000E+01
(PID.TID 0000.0001) %MON seaice_uice_max              =   1.2135478212423E-02
(PID.TID 0000.0001) %MON seaice_uice_min              =  -1.2396815875936E-02
(PID.TID 0000.0001) %MON seaice_uice_mean             =  -2.7920379928284E-07
(PID.TID 0000.0001) %MON seaice_uice_sd               =   5.2250117903230E-03
(PID.TID 0000.0001) %MON seaice_uice_del2             =   1.5436351833879E-06
(PID.TID 0000.0001) %MON seaice_vice_max              =   1.1847297611876E-02
(PID.TID 0000.0001) %MON seaice_vice_min              =  -1.1994656780957E-02
(PID.TID 0000.0001) %MON seaice_vice_mean             =   1.3228397311279E-06
(PID.TID 0000.0001) %MON seaice_vice_sd               =   5.1996037682407E-03
(PID.TID 0000.0001) %MON seaice_vice_del2             =   1.5449512320697E-06
(PID.TID 0000.0001) %MON seaice_area_max              =   1.0000000000000E+00
(PID.TID 0000.0001) %MON seaice_area_min              =   9.9999806523475E-01
(PID.TID 0000.0001) %MON seaice_area_mean             =   9.9999988211318E-01
(PID.TID 0000.0001) %MON seaice_area_sd               =   2.6269668878921E-07
(PID.TID 0000.0001) %MON seaice_area_del2             =   2.8350958037882E-09
(PID.TID 0000.0001) %MON seaice_heff_max              =   3.0999864189408E-01
(PID.TID 0000.0001) %MON seaice_heff_min              =   2.9006053371969E-01
(PID.TID 0000.0001) %MON seaice_heff_mean             =   3.0067126525963E-01
(PID.TID 0000.0001) %MON seaice_heff_sd               =   5.0069231948888E-03
(PID.TID 0000.0001) %MON seaice_heff_del2             =   1.2853747473846E-05
(PID.TID 0000.0001) %MON seaice_hsnow_max             =   0.0000000000000E+00
(PID.TID 0000.0001) %MON seaice_hsnow_min             =   0.0000000000000E+00
(PID.TID 0000.0001) %MON seaice_hsnow_mean            =   0.0000000000000E+00
(PID.TID 0000.0001) %MON seaice_hsnow_sd              =   0.0000000000000E+00
(PID.TID 0000.0001) %MON seaice_hsnow_del2            =   0.0000000000000E+00
(PID.TID 0000.0001) // =======================================================
(PID.TID 0000.0001) // End MONITOR SEAICE statistics
(PID.TID 0000.0001) // =======================================================
 Computing Diagnostic #    163  SIuice       Counter:       1   Parms: UU      M1      
           Vector  Mate for  SIuice       Diagnostic #    164  SIvice   exists 
 Computing Diagnostic #    164  SIvice       Counter:       1   Parms: VV      M1      
           Vector  Mate for  SIvice       Diagnostic #    163  SIuice   exists 
 Computing Diagnostic #    149  SIheff       Counter:       1   Parms: SM      M1      
 Computing Diagnostic #    146  SIarea       Counter:       1   Parms: SM      M1      
 Computing Diagnostic #    228  SIshear      Counter:       1   Parms: SM      M1      
 Computing Diagnostic #    233  SIcohes      Counter:       1   Parms: SM      M1      
 Computing Diagnostic #    221  SIsig1       Counter:       1   Parms: SM      M1      
 Computing Diagnostic #    222  SIsig2       Counter:       1   Parms: SM      M1      
 Computing Diagnostic #    231  SIdamage     Counter:       1   Parms: SM      M1      
 Computing Diagnostic #    165  SItaux       Counter:       1   Parms: UU      U1      
           Vector  Mate for  SItaux       Diagnostic #    166  SItauy   exists 
 Computing Diagnostic #    166  SItauy       Counter:       1   Parms: VV      U1      
           Vector  Mate for  SItauy       Diagnostic #    165  SItaux   exists 
 Computing Diagnostic #    133  EXFuwind     Counter:       1   Parms: UM      U1      
 Computing Diagnostic #    134  EXFvwind     Counter:       1   Parms: VM      U1      
(PID.TID 0000.0001)  S/R SEAICE_KRYLOV: Picard iterate / total, KRYLOVgamma_lin, initial norm =       1    701 0.10000E+00 0.11116E+00
(PID.TID 0000.0001)  S/R SEAICE_KRYLOV: Picard iterate / total =      1 /    701, Nb. of FGMRES iterations =      1
(PID.TID 0000.0001)  S/R SEAICE_KRYLOV: Picard iterate / total, KRYLOVgamma_lin, initial norm =       2    702 0.50000E-01 0.25145E-03
(PID.TID 0000.0001)  S/R SEAICE_KRYLOV: Picard iterate / total =      2 /    702, Nb. of FGMRES iterations =      1
(PID.TID 0000.0001)  S/R SEAICE_KRYLOV: Picard iterate / total, KRYLOVgamma_lin, initial norm =       3    703 0.50000E-01 0.28258E-04
(PID.TID 0000.0001)  S/R SEAICE_KRYLOV: Picard iterate / total =      3 /    703, Nb. of FGMRES iterations =      1
(PID.TID 0000.0001)  S/R SEAICE_KRYLOV: Picard iterate / total, KRYLOVgamma_lin, initial norm =       4    704 0.33333E-01 0.21059E-04
(PID.TID 0000.0001)  S/R SEAICE_KRYLOV: Picard iterate / total =      4 /    704, Nb. of FGMRES iterations =      1
(PID.TID 0000.0001)  S/R SEAICE_KRYLOV: Picard iterate / total, KRYLOVgamma_lin, initial norm =       5    705 0.33333E-01 0.98910E-05
(PID.TID 0000.0001)  S/R SEAICE_KRYLOV: Picard iterate / total =      5 /    705, Nb. of FGMRES iterations =      1
(PID.TID 0000.0001)  S/R SEAICE_KRYLOV: Picard iterate / total, KRYLOVgamma_lin, initial norm =       6    706 0.33333E-01 0.49995E-05
(PID.TID 0000.0001)  S/R SEAICE_KRYLOV: Picard iterate / total =      6 /    706, Nb. of FGMRES iterations =      1
(PID.TID 0000.0001)  S/R SEAICE_KRYLOV: Picard iterate / total, KRYLOVgamma_lin, initial norm =       7    707 0.33333E-01 0.24951E-05
(PID.TID 0000.0001)  S/R SEAICE_KRYLOV: Picard iterate / total =      7 /    707, Nb. of FGMRES iterations =      1
(PID.TID 0000.0001)  S/R SEAICE_KRYLOV: Picard iterate / total, KRYLOVgamma_lin, initial norm =       8    708 0.25000E-01 0.12480E-05
(PID.TID 0000.0001)  S/R SEAICE_KRYLOV: Picard iterate / total =      8 /    708, Nb. of FGMRES iterations =      1
(PID.TID 0000.0001)  S/R SEAICE_KRYLOV: Picard iterate / total, KRYLOVgamma_lin, initial norm =       9    709 0.20000E-01 0.62395E-06
(PID.TID 0000.0001)  S/R SEAICE_KRYLOV: Picard iterate / total =      9 /    709, Nb. of FGMRES iterations =      1
(PID.TID 0000.0001)  S/R SEAICE_KRYLOV: Picard iterate / total, KRYLOVgamma_lin, initial norm =      10    710 0.12500E-01 0.31198E-06
(PID.TID 0000.0001)  S/R SEAICE_KRYLOV: Picard iterate / total =     10 /    710, Nb. of FGMRES iterations =      1
(PID.TID 0000.0001)  S/R SEAICE_KRYLOV: Picard iterate / total, KRYLOVgamma_lin, initial norm =      11    711 0.12500E-01 0.15599E-06
(PID.TID 0000.0001)  S/R SEAICE_KRYLOV: Picard iterate / total =     11 /    711, Nb. of FGMRES iterations =      1
(PID.TID 0000.0001)  S/R SEAICE_KRYLOV: Picard iterate / total, KRYLOVgamma_lin, initial norm =      12    712 0.12500E-01 0.77994E-07
(PID.TID 0000.0001)  S/R SEAICE_KRYLOV: Picard iterate / total =     12 /    712, Nb. of FGMRES iterations =      1
(PID.TID 0000.0001)  S/R SEAICE_KRYLOV: Picard iterate / total, KRYLOVgamma_lin, initial norm =      13    713 0.12500E-01 0.38997E-07
(PID.TID 0000.0001)  S/R SEAICE_KRYLOV: Picard iterate / total =     13 /    713, Nb. of FGMRES iterations =      1
(PID.TID 0000.0001)  S/R SEAICE_KRYLOV: Picard iterate / total, KRYLOVgamma_lin, initial norm =      14    714 0.12500E-01 0.19498E-07
(PID.TID 0000.0001)  S/R SEAICE_KRYLOV: Picard iterate / total =     14 /    714, Nb. of FGMRES iterations =      1
(PID.TID 0000.0001)  S/R SEAICE_KRYLOV: Picard iterate / total, KRYLOVgamma_lin, initial norm =      15    715 0.12500E-01 0.97492E-08
(PID.TID 0000.0001)  S/R SEAICE_KRYLOV: Picard iterate / total =     15 /    715, Nb. of FGMRES iterations =      1
(PID.TID 0000.0001)  S/R SEAICE_KRYLOV: Picard iterate / total, KRYLOVgamma_lin, initial norm =      16    716 0.12500E-01 0.48746E-08
(PID.TID 0000.0001)  S/R SEAICE_KRYLOV: Picard iterate / total =     16 /    716, Nb. of FGMRES iterations =      1
(PID.TID 0000.0001)  S/R SEAICE_KRYLOV: Picard iterate / total, KRYLOVgamma_lin, initial norm =      17    717 0.12500E-01 0.24373E-08
(PID.TID 0000.0001)  S/R SEAICE_KRYLOV: Picard iterate / total =     17 /    717, Nb. of FGMRES iterations =      1
(PID.TID 0000.0001)  S/R SEAICE_KRYLOV: Picard iterate / total, KRYLOVgamma_lin, initial norm =      18    718 0.12500E-01 0.12187E-08
(PID.TID 0000.0001)  S/R SEAICE_KRYLOV: Picard iterate / total =     18 /    718, Nb. of FGMRES iterations =      1
(PID.TID 0000.0001)  S/R SEAICE_KRYLOV: Picard iterate / total, KRYLOVgamma_lin, initial norm =      19    719 0.12500E-01 0.60933E-09
(PID.TID 0000.0001)  S/R SEAICE_KRYLOV: Picard iterate / total =     19 /    719, Nb. of FGMRES iterations =      1
(PID.TID 0000.0001)  S/R SEAICE_KRYLOV: Picard iterate / total, KRYLOVgamma_lin, initial norm =      20    720 0.12500E-01 0.30466E-09
(PID.TID 0000.0001)  S/R SEAICE_KRYLOV: Picard iterate / total =     20 /    720, Nb. of FGMRES iterations =      1
(PID.TID 0000.0001)  S/R SEAICE_KRYLOV: Picard iterate / total, KRYLOVgamma_lin, initial norm =      21    721 0.12500E-01 0.15233E-09
(PID.TID 0000.0001)  S/R SEAICE_KRYLOV: Picard iterate / total =     21 /    721, Nb. of FGMRES iterations =      1
(PID.TID 0000.0001)  S/R SEAICE_KRYLOV: Picard iterate / total, KRYLOVgamma_lin, initial norm =      22    722 0.12500E-01 0.76166E-10
(PID.TID 0000.0001)  S/R SEAICE_KRYLOV: Picard iterate / total =     22 /    722, Nb. of FGMRES iterations =      1
(PID.TID 0000.0001)  S/R SEAICE_KRYLOV: Picard iterate / total, KRYLOVgamma_lin, initial norm =      23    723 0.12500E-01 0.38083E-10
(PID.TID 0000.0001)  S/R SEAICE_KRYLOV: Picard iterate / total =     23 /    723, Nb. of FGMRES iterations =      1
(PID.TID 0000.0001)  S/R SEAICE_KRYLOV: Picard iterate / total, KRYLOVgamma_lin, initial norm =      24    724 0.12500E-01 0.19042E-10
(PID.TID 0000.0001)  S/R SEAICE_KRYLOV: Picard iterate / total =     24 /    724, Nb. of FGMRES iterations =      1
(PID.TID 0000.0001)  S/R SEAICE_KRYLOV: Picard iterate / total, KRYLOVgamma_lin, initial norm =      25    725 0.12500E-01 0.95208E-11
(PID.TID 0000.0001)  S/R SEAICE_KRYLOV: Picard iterate / total =     25 /    725, Nb. of FGMRES iterations =      1
(PID.TID 0000.0001)  S/R SEAICE_KRYLOV: Picard iterate / total, KRYLOVgamma_lin, initial norm =      26    726 0.12500E-01 0.47604E-11
(PID.TID 0000.0001)  S/R SEAICE_KRYLOV: Picard iterate / total =     26 /    726, Nb. of FGMRES iterations =      1
(PID.TID 0000.0001)  S/R SEAICE_KRYLOV: Picard iterate / total, KRYLOVgamma_lin, initial norm =      27    727 0.12500E-01 0.23802E-11
(PID.TID 0000.0001)  S/R SEAICE_KRYLOV: Picard iterate / total =     27 /    727, Nb. of FGMRES iterations =      1
(PID.TID 0000.0001)  S/R SEAICE_KRYLOV: Picard iterate / total, KRYLOVgamma_lin, initial norm =      28    728 0.12500E-01 0.11901E-11
(PID.TID 0000.0001)  S/R SEAICE_KRYLOV: Picard iterate / total =     28 /    728, Nb. of FGMRES iterations =      1
(PID.TID 0000.0001)  S/R SEAICE_KRYLOV: Picard iterate / total, KRYLOVgamma_lin, initial norm =      29    729 0.12500E-01 0.59505E-12
(PID.TID 0000.0001)  S/R SEAICE_KRYLOV: Picard iterate / total =     29 /    729, Nb. of FGMRES iterations =      1
(PID.TID 0000.0001)  S/R SEAICE_KRYLOV: Picard iterate / total, KRYLOVgamma_lin, initial norm =      30    730 0.12500E-01 0.29752E-12
(PID.TID 0000.0001)  S/R SEAICE_KRYLOV: Picard iterate / total =     30 /    730, Nb. of FGMRES iterations =      1
(PID.TID 0000.0001)  S/R SEAICE_KRYLOV: Picard iterate / total, KRYLOVgamma_lin, initial norm =      31    731 0.12500E-01 0.14876E-12
(PID.TID 0000.0001)  S/R SEAICE_KRYLOV: Picard iterate / total =     31 /    731, Nb. of FGMRES iterations =      1
(PID.TID 0000.0001)  S/R SEAICE_KRYLOV: Picard iterate / total, KRYLOVgamma_lin, final   norm =      32    732 0.12500E-01 0.74381E-13
(PID.TID 0000.0001)  // =======================================================
(PID.TID 0000.0001)  // Begin KRYLOV statistics
(PID.TID 0000.0001)  // =======================================================
(PID.TID 0000.0001)  %KRYLOV_MON: time step              =          8
(PID.TID 0000.0001)  %KRYLOV_MON: Nb. of time steps      =          1
(PID.TID 0000.0001)  %KRYLOV_MON: Nb. of Picard steps    =         32
(PID.TID 0000.0001)  %KRYLOV_MON: Nb. of Krylov steps    =         31
(PID.TID 0000.0001)  %KRYLOV_MON: Nb. of Picard failures =          0
(PID.TID 0000.0001)  %KRYLOV_MON: Nb. of Krylov failures =          0
(PID.TID 0000.0001)  // =======================================================
(PID.TID 0000.0001)  // End KRYLOV statistics
(PID.TID 0000.0001)  // =======================================================
(PID.TID 0000.0001)  S/R SEAICE_KRYLOV: Total number FGMRES iterations =     31 in timestep          8
(PID.TID 0000.0001) // =======================================================
(PID.TID 0000.0001) // Begin MONITOR dynamic field statistics
(PID.TID 0000.0001) // =======================================================
(PID.TID 0000.0001) %MON time_tsnumber                =                     8
(PID.TID 0000.0001) %MON time_secondsf                =   2.0000000000000E+01
(PID.TID 0000.0001) %MON dynstat_eta_max              =   0.0000000000000E+00
(PID.TID 0000.0001) %MON dynstat_eta_min              =   0.0000000000000E+00
(PID.TID 0000.0001) %MON dynstat_eta_mean             =   0.0000000000000E+00
(PID.TID 0000.0001) %MON dynstat_eta_sd               =   0.0000000000000E+00
(PID.TID 0000.0001) %MON dynstat_eta_del2             =   0.0000000000000E+00
(PID.TID 0000.0001) %MON dynstat_uvel_max             =   9.8437500000000E-03
(PID.TID 0000.0001) %MON dynstat_uvel_min             =  -9.8437500000000E-03
(PID.TID 0000.0001) %MON dynstat_uvel_mean            =   0.0000000000000E+00
(PID.TID 0000.0001) %MON dynstat_uvel_sd              =   5.7727978755972E-03
(PID.TID 0000.0001) %MON dynstat_uvel_del2            =   1.0089048364799E-20
(PID.TID 0000.0001) %MON dynstat_vvel_max             =   9.8437500000000E-03
(PID.TID 0000.0001) %MON dynstat_vvel_min             =  -9.8437500000000E-03
(PID.TID 0000.0001) %MON dynstat_vvel_mean            =   0.0000000000000E+00
(PID.TID 0000.0001) %MON dynstat_vvel_sd              =   5.7727978755972E-03
(PID.TID 0000.0001) %MON dynstat_vvel_del2            =   1.0089048364799E-20
(PID.TID 0000.0001) %MON dynstat_wvel_max             =   1.1914062500000E-05
(PID.TID 0000.0001) %MON dynstat_wvel_min             =  -1.1914062500000E-05
(PID.TID 0000.0001) %MON dynstat_wvel_mean            =   3.4694469519536E-25
(PID.TID 0000.0001) %MON dynstat_wvel_sd              =   1.7200872247780E-06
(PID.TID 0000.0001) %MON dynstat_wvel_del2            =   2.8187489626940E-08
(PID.TID 0000.0001) %MON dynstat_theta_max            =  -1.6200000000000E+00
(PID.TID 0000.0001) %MON dynstat_theta_min            =  -1.6200000000000E+00
(PID.TID 0000.0001) %MON dynstat_theta_mean           =  -1.6200000000000E+00
(PID.TID 0000.0001) %MON dynstat_theta_sd             =   0.0000000000000E+00
(PID.TID 0000.0001) %MON dynstat_theta_del2           =   0.0000000000000E+00
(PID.TID 0000.0001) %MON dynstat_salt_max             =   3.0000000000000E+01
(PID.TID 0000.0001) %MON dynstat_salt_min             =   3.0000000000000E+01
(PID.TID 0000.0001) %MON dynstat_salt_mean            =   3.0000000000000E+01
(PID.TID 0000.0001) %MON dynstat_salt_sd              =   0.0000000000000E+00
(PID.TID 0000.0001) %MON dynstat_salt_del2            =   0.0000000000000E+00
(PID.TID 0000.0001) %MON trAdv_CFL_u_max              =   3.0761718750000E-06
(PID.TID 0000.0001) %MON trAdv_CFL_v_max              =   3.0761718750000E-06
(PID.TID 0000.0001) %MON trAdv_CFL_w_max              =   2.9785156250000E-06
(PID.TID 0000.0001) %MON advcfl_uvel_max              =   3.0761718750000E-06
(PID.TID 0000.0001) %MON advcfl_vvel_max              =   3.0761718750000E-06
(PID.TID 0000.0001) %MON advcfl_wvel_max              =   5.9570312500000E-06
(PID.TID 0000.0001) %MON advcfl_W_hf_max              =   0.0000000000000E+00
(PID.TID 0000.0001) %MON pe_b_mean                    =   0.0000000000000E+00
(PID.TID 0000.0001) %MON ke_max                       =   9.0844726562500E-05
(PID.TID 0000.0001) %MON ke_mean                      =   3.2804489135742E-05
(PID.TID 0000.0001) %MON ke_vol                       =   2.6214400000000E+12
(PID.TID 0000.0001) %MON vort_r_min                   =  -7.8125000000000E-08
(PID.TID 0000.0001) %MON vort_r_max                   =   1.2304687500000E-06
(PID.TID 0000.0001) %MON vort_a_mean                  =   1.4856000000000E-04
(PID.TID 0000.0001) %MON vort_a_sd                    =   1.5312918562496E-06
(PID.TID 0000.0001) %MON vort_p_mean                  =   1.5552375000000E-04
(PID.TID 0000.0001) %MON vort_p_sd                    =   5.5921473110222E-05
(PID.TID 0000.0001) %MON surfExpan_theta_mean         =   0.0000000000000E+00
(PID.TID 0000.0001) %MON surfExpan_salt_mean          =   1.3877787807814E-23
(PID.TID 0000.0001) // =======================================================
(PID.TID 0000.0001) // End MONITOR dynamic field statistics
(PID.TID 0000.0001) // =======================================================
(PID.TID 0000.0001) // =======================================================
(PID.TID 0000.0001) // Begin MONITOR SEAICE statistics
(PID.TID 0000.0001) // =======================================================
(PID.TID 0000.0001) %MON seaice_tsnumber              =                     8
(PID.TID 0000.0001) %MON seaice_time_sec              =   2.0000000000000E+01
(PID.TID 0000.0001) %MON seaice_uice_max              =   1.3834767828073E-02
(PID.TID 0000.0001) %MON seaice_uice_min              =  -1.4125889476797E-02
(PID.TID 0000.0001) %MON seaice_uice_mean             =  -3.1777859076322E-07
(PID.TID 0000.0001) %MON seaice_uice_sd               =   5.9599098321776E-03
(PID.TID 0000.0001) %MON seaice_uice_del2             =   1.7624999312024E-06
(PID.TID 0000.0001) %MON seaice_vice_max              =   1.3509276021121E-02
(PID.TID 0000.0001) %MON seaice_vice_min              =  -1.3673346958768E-02
(PID.TID 0000.0001) %MON seaice_vice_mean             =   1.5234114164254E-06
(PID.TID 0000.0001) %MON seaice_vice_sd               =   5.9310695603148E-03
(PID.TID 0000.0001) %MON seaice_vice_del2             =   1.7646151560760E-06
(PID.TID 0000.0001) %MON seaice_area_max              =   1.0000000000000E+00
(PID.TID 0000.0001) %MON seaice_area_min              =   9.9999750880657E-01
(PID.TID 0000.0001) %MON seaice_area_mean             =   9.9999984892135E-01
(PID.TID 0000.0001) %MON seaice_area_sd               =   3.3692810610783E-07
(PID.TID 0000.0001) %MON seaice_area_del2             =   3.7584347315060E-09
(PID.TID 0000.0001) %MON seaice_heff_max              =   3.0999863307124E-01
(PID.TID 0000.0001) %MON seaice_heff_min              =   2.9006052460460E-01
(PID.TID 0000.0001) %MON seaice_heff_mean             =   3.0067126525963E-01
(PID.TID 0000.0001) %MON seaice_heff_sd               =   5.0069233760432E-03
(PID.TID 0000.0001) %MON seaice_heff_del2             =   1.2853746854800E-05
(PID.TID 0000.0001) %MON seaice_hsnow_max             =   0.0000000000000E+00
(PID.TID 0000.0001) %MON seaice_hsnow_min             =   0.0000000000000E+00
(PID.TID 0000.0001) %MON seaice_hsnow_mean            =   0.0000000000000E+00
(PID.TID 0000.0001) %MON seaice_hsnow_sd              =   0.0000000000000E+00
(PID.TID 0000.0001) %MON seaice_hsnow_del2            =   0.0000000000000E+00
(PID.TID 0000.0001) // =======================================================
(PID.TID 0000.0001) // End MONITOR SEAICE statistics
(PID.TID 0000.0001) // =======================================================
 Computing Diagnostic #    163  SIuice       Counter:       1   Parms: UU      M1      
           Vector  Mate for  SIuice       Diagnostic #    164  SIvice   exists 
 Computing Diagnostic #    164  SIvice       Counter:       1   Parms: VV      M1      
           Vector  Mate for  SIvice       Diagnostic #    163  SIuice   exists 
 Computing Diagnostic #    149  SIheff       Counter:       1   Parms: SM      M1      
 Computing Diagnostic #    146  SIarea       Counter:       1   Parms: SM      M1      
 Computing Diagnostic #    228  SIshear      Counter:       1   Parms: SM      M1      
 Computing Diagnostic #    233  SIcohes      Counter:       1   Parms: SM      M1      
 Computing Diagnostic #    221  SIsig1       Counter:       1   Parms: SM      M1      
 Computing Diagnostic #    222  SIsig2       Counter:       1   Parms: SM      M1      
 Computing Diagnostic #    231  SIdamage     Counter:       1   Parms: SM      M1      
 Computing Diagnostic #    165  SItaux       Counter:       1   Parms: UU      U1      
           Vector  Mate for  SItaux       Diagnostic #    166  SItauy   exists 
 Computing Diagnostic #    166  SItauy       Counter:       1   Parms: VV      U1      
           Vector  Mate for  SItauy       Diagnostic #    165  SItaux   exists 
 Computing Diagnostic #    133  EXFuwind     Counter:       1   Parms: UM      U1      
 Computing Diagnostic #    134  EXFvwind     Counter:       1   Parms: VM      U1      
(PID.TID 0000.0001)  S/R SEAICE_KRYLOV: Picard iterate / total, KRYLOVgamma_lin, initial norm =       1    801 0.10000E+00 0.11081E+00
(PID.TID 0000.0001)  S/R SEAICE_KRYLOV: Picard iterate / total =      1 /    801, Nb. of FGMRES iterations =      1
(PID.TID 0000.0001)  S/R SEAICE_KRYLOV: Picard iterate / total, KRYLOVgamma_lin, initial norm =       2    802 0.50000E-01 0.23285E-03
(PID.TID 0000.0001)  S/R SEAICE_KRYLOV: Picard iterate / total =      2 /    802, Nb. of FGMRES iterations =      1
(PID.TID 0000.0001)  S/R SEAICE_KRYLOV: Picard iterate / total, KRYLOVgamma_lin, initial norm =       3    803 0.50000E-01 0.24007E-04
(PID.TID 0000.0001)  S/R SEAICE_KRYLOV: Picard iterate / total =      3 /    803, Nb. of FGMRES iterations =      1
(PID.TID 0000.0001)  S/R SEAICE_KRYLOV: Picard iterate / total, KRYLOVgamma_lin, initial norm =       4    804 0.33333E-01 0.18412E-04
(PID.TID 0000.0001)  S/R SEAICE_KRYLOV: Picard iterate / total =      4 /    804, Nb. of FGMRES iterations =      1
(PID.TID 0000.0001)  S/R SEAICE_KRYLOV: Picard iterate / total, KRYLOVgamma_lin, initial norm =       5    805 0.33333E-01 0.86070E-05
(PID.TID 0000.0001)  S/R SEAICE_KRYLOV: Picard iterate / total =      5 /    805, Nb. of FGMRES iterations =      1
(PID.TID 0000.0001)  S/R SEAICE_KRYLOV: Picard iterate / total, KRYLOVgamma_lin, initial norm =       6    806 0.33333E-01 0.43537E-05
(PID.TID 0000.0001)  S/R SEAICE_KRYLOV: Picard iterate / total =      6 /    806, Nb. of FGMRES iterations =      1
(PID.TID 0000.0001)  S/R SEAICE_KRYLOV: Picard iterate / total, KRYLOVgamma_lin, initial norm =       7    807 0.33333E-01 0.21726E-05
(PID.TID 0000.0001)  S/R SEAICE_KRYLOV: Picard iterate / total =      7 /    807, Nb. of FGMRES iterations =      1
(PID.TID 0000.0001)  S/R SEAICE_KRYLOV: Picard iterate / total, KRYLOVgamma_lin, initial norm =       8    808 0.25000E-01 0.10867E-05
(PID.TID 0000.0001)  S/R SEAICE_KRYLOV: Picard iterate / total =      8 /    808, Nb. of FGMRES iterations =      1
(PID.TID 0000.0001)  S/R SEAICE_KRYLOV: Picard iterate / total, KRYLOVgamma_lin, initial norm =       9    809 0.20000E-01 0.54330E-06
(PID.TID 0000.0001)  S/R SEAICE_KRYLOV: Picard iterate / total =      9 /    809, Nb. of FGMRES iterations =      1
(PID.TID 0000.0001)  S/R SEAICE_KRYLOV: Picard iterate / total, KRYLOVgamma_lin, initial norm =      10    810 0.12500E-01 0.27165E-06
(PID.TID 0000.0001)  S/R SEAICE_KRYLOV: Picard iterate / total =     10 /    810, Nb. of FGMRES iterations =      1
(PID.TID 0000.0001)  S/R SEAICE_KRYLOV: Picard iterate / total, KRYLOVgamma_lin, initial norm =      11    811 0.12500E-01 0.13583E-06
(PID.TID 0000.0001)  S/R SEAICE_KRYLOV: Picard iterate / total =     11 /    811, Nb. of FGMRES iterations =      1
(PID.TID 0000.0001)  S/R SEAICE_KRYLOV: Picard iterate / total, KRYLOVgamma_lin, initial norm =      12    812 0.12500E-01 0.67913E-07
(PID.TID 0000.0001)  S/R SEAICE_KRYLOV: Picard iterate / total =     12 /    812, Nb. of FGMRES iterations =      1
(PID.TID 0000.0001)  S/R SEAICE_KRYLOV: Picard iterate / total, KRYLOVgamma_lin, initial norm =      13    813 0.12500E-01 0.33957E-07
(PID.TID 0000.0001)  S/R SEAICE_KRYLOV: Picard iterate / total =     13 /    813, Nb. of FGMRES iterations =      1
(PID.TID 0000.0001)  S/R SEAICE_KRYLOV: Picard iterate / total, KRYLOVgamma_lin, initial norm =      14    814 0.12500E-01 0.16978E-07
(PID.TID 0000.0001)  S/R SEAICE_KRYLOV: Picard iterate / total =     14 /    814, Nb. of FGMRES iterations =      1
(PID.TID 0000.0001)  S/R SEAICE_KRYLOV: Picard iterate / total, KRYLOVgamma_lin, initial norm =      15    815 0.12500E-01 0.84891E-08
(PID.TID 0000.0001)  S/R SEAICE_KRYLOV: Picard iterate / total =     15 /    815, Nb. of FGMRES iterations =      1
(PID.TID 0000.0001)  S/R SEAICE_KRYLOV: Picard iterate / total, KRYLOVgamma_lin, initial norm =      16    816 0.12500E-01 0.42446E-08
(PID.TID 0000.0001)  S/R SEAICE_KRYLOV: Picard iterate / total =     16 /    816, Nb. of FGMRES iterations =      1
(PID.TID 0000.0001)  S/R SEAICE_KRYLOV: Picard iterate / total, KRYLOVgamma_lin, initial norm =      17    817 0.12500E-01 0.21223E-08
(PID.TID 0000.0001)  S/R SEAICE_KRYLOV: Picard iterate / total =     17 /    817, Nb. of FGMRES iterations =      1
(PID.TID 0000.0001)  S/R SEAICE_KRYLOV: Picard iterate / total, KRYLOVgamma_lin, initial norm =      18    818 0.12500E-01 0.10611E-08
(PID.TID 0000.0001)  S/R SEAICE_KRYLOV: Picard iterate / total =     18 /    818, Nb. of FGMRES iterations =      1
(PID.TID 0000.0001)  S/R SEAICE_KRYLOV: Picard iterate / total, KRYLOVgamma_lin, initial norm =      19    819 0.12500E-01 0.53057E-09
(PID.TID 0000.0001)  S/R SEAICE_KRYLOV: Picard iterate / total =     19 /    819, Nb. of FGMRES iterations =      1
(PID.TID 0000.0001)  S/R SEAICE_KRYLOV: Picard iterate / total, KRYLOVgamma_lin, initial norm =      20    820 0.12500E-01 0.26529E-09
(PID.TID 0000.0001)  S/R SEAICE_KRYLOV: Picard iterate / total =     20 /    820, Nb. of FGMRES iterations =      1
(PID.TID 0000.0001)  S/R SEAICE_KRYLOV: Picard iterate / total, KRYLOVgamma_lin, initial norm =      21    821 0.12500E-01 0.13264E-09
(PID.TID 0000.0001)  S/R SEAICE_KRYLOV: Picard iterate / total =     21 /    821, Nb. of FGMRES iterations =      1
(PID.TID 0000.0001)  S/R SEAICE_KRYLOV: Picard iterate / total, KRYLOVgamma_lin, initial norm =      22    822 0.12500E-01 0.66321E-10
(PID.TID 0000.0001)  S/R SEAICE_KRYLOV: Picard iterate / total =     22 /    822, Nb. of FGMRES iterations =      1
(PID.TID 0000.0001)  S/R SEAICE_KRYLOV: Picard iterate / total, KRYLOVgamma_lin, initial norm =      23    823 0.12500E-01 0.33161E-10
(PID.TID 0000.0001)  S/R SEAICE_KRYLOV: Picard iterate / total =     23 /    823, Nb. of FGMRES iterations =      1
(PID.TID 0000.0001)  S/R SEAICE_KRYLOV: Picard iterate / total, KRYLOVgamma_lin, initial norm =      24    824 0.12500E-01 0.16580E-10
(PID.TID 0000.0001)  S/R SEAICE_KRYLOV: Picard iterate / total =     24 /    824, Nb. of FGMRES iterations =      1
(PID.TID 0000.0001)  S/R SEAICE_KRYLOV: Picard iterate / total, KRYLOVgamma_lin, initial norm =      25    825 0.12500E-01 0.82902E-11
(PID.TID 0000.0001)  S/R SEAICE_KRYLOV: Picard iterate / total =     25 /    825, Nb. of FGMRES iterations =      1
(PID.TID 0000.0001)  S/R SEAICE_KRYLOV: Picard iterate / total, KRYLOVgamma_lin, initial norm =      26    826 0.12500E-01 0.41451E-11
(PID.TID 0000.0001)  S/R SEAICE_KRYLOV: Picard iterate / total =     26 /    826, Nb. of FGMRES iterations =      1
(PID.TID 0000.0001)  S/R SEAICE_KRYLOV: Picard iterate / total, KRYLOVgamma_lin, initial norm =      27    827 0.12500E-01 0.20725E-11
(PID.TID 0000.0001)  S/R SEAICE_KRYLOV: Picard iterate / total =     27 /    827, Nb. of FGMRES iterations =      1
(PID.TID 0000.0001)  S/R SEAICE_KRYLOV: Picard iterate / total, KRYLOVgamma_lin, initial norm =      28    828 0.12500E-01 0.10363E-11
(PID.TID 0000.0001)  S/R SEAICE_KRYLOV: Picard iterate / total =     28 /    828, Nb. of FGMRES iterations =      1
(PID.TID 0000.0001)  S/R SEAICE_KRYLOV: Picard iterate / total, KRYLOVgamma_lin, initial norm =      29    829 0.12500E-01 0.51813E-12
(PID.TID 0000.0001)  S/R SEAICE_KRYLOV: Picard iterate / total =     29 /    829, Nb. of FGMRES iterations =      1
(PID.TID 0000.0001)  S/R SEAICE_KRYLOV: Picard iterate / total, KRYLOVgamma_lin, initial norm =      30    830 0.12500E-01 0.25907E-12
(PID.TID 0000.0001)  S/R SEAICE_KRYLOV: Picard iterate / total =     30 /    830, Nb. of FGMRES iterations =      1
(PID.TID 0000.0001)  S/R SEAICE_KRYLOV: Picard iterate / total, KRYLOVgamma_lin, initial norm =      31    831 0.12500E-01 0.12953E-12
(PID.TID 0000.0001)  S/R SEAICE_KRYLOV: Picard iterate / total =     31 /    831, Nb. of FGMRES iterations =      1
(PID.TID 0000.0001)  S/R SEAICE_KRYLOV: Picard iterate / total, KRYLOVgamma_lin, final   norm =      32    832 0.12500E-01 0.64767E-13
(PID.TID 0000.0001)  // =======================================================
(PID.TID 0000.0001)  // Begin KRYLOV statistics
(PID.TID 0000.0001)  // =======================================================
(PID.TID 0000.0001)  %KRYLOV_MON: time step              =          9
(PID.TID 0000.0001)  %KRYLOV_MON: Nb. of time steps      =          1
(PID.TID 0000.0001)  %KRYLOV_MON: Nb. of Picard steps    =         32
(PID.TID 0000.0001)  %KRYLOV_MON: Nb. of Krylov steps    =         31
(PID.TID 0000.0001)  %KRYLOV_MON: Nb. of Picard failures =          0
(PID.TID 0000.0001)  %KRYLOV_MON: Nb. of Krylov failures =          0
(PID.TID 0000.0001)  // =======================================================
(PID.TID 0000.0001)  // End KRYLOV statistics
(PID.TID 0000.0001)  // =======================================================
(PID.TID 0000.0001)  S/R SEAICE_KRYLOV: Total number FGMRES iterations =     31 in timestep          9
(PID.TID 0000.0001) // =======================================================
(PID.TID 0000.0001) // Begin MONITOR dynamic field statistics
(PID.TID 0000.0001) // =======================================================
(PID.TID 0000.0001) %MON time_tsnumber                =                     9
(PID.TID 0000.0001) %MON time_secondsf                =   2.2500000000000E+01
(PID.TID 0000.0001) %MON dynstat_eta_max              =   0.0000000000000E+00
(PID.TID 0000.0001) %MON dynstat_eta_min              =   0.0000000000000E+00
(PID.TID 0000.0001) %MON dynstat_eta_mean             =   0.0000000000000E+00
(PID.TID 0000.0001) %MON dynstat_eta_sd               =   0.0000000000000E+00
(PID.TID 0000.0001) %MON dynstat_eta_del2             =   0.0000000000000E+00
(PID.TID 0000.0001) %MON dynstat_uvel_max             =   9.8437500000000E-03
(PID.TID 0000.0001) %MON dynstat_uvel_min             =  -9.8437500000000E-03
(PID.TID 0000.0001) %MON dynstat_uvel_mean            =   0.0000000000000E+00
(PID.TID 0000.0001) %MON dynstat_uvel_sd              =   5.7727978755972E-03
(PID.TID 0000.0001) %MON dynstat_uvel_del2            =   1.0089048364799E-20
(PID.TID 0000.0001) %MON dynstat_vvel_max             =   9.8437500000000E-03
(PID.TID 0000.0001) %MON dynstat_vvel_min             =  -9.8437500000000E-03
(PID.TID 0000.0001) %MON dynstat_vvel_mean            =   0.0000000000000E+00
(PID.TID 0000.0001) %MON dynstat_vvel_sd              =   5.7727978755972E-03
(PID.TID 0000.0001) %MON dynstat_vvel_del2            =   1.0089048364799E-20
(PID.TID 0000.0001) %MON dynstat_wvel_max             =   1.1914062500000E-05
(PID.TID 0000.0001) %MON dynstat_wvel_min             =  -1.1914062500000E-05
(PID.TID 0000.0001) %MON dynstat_wvel_mean            =   3.4694469519536E-25
(PID.TID 0000.0001) %MON dynstat_wvel_sd              =   1.7200872247780E-06
(PID.TID 0000.0001) %MON dynstat_wvel_del2            =   2.8187489626940E-08
(PID.TID 0000.0001) %MON dynstat_theta_max            =  -1.6200000000000E+00
(PID.TID 0000.0001) %MON dynstat_theta_min            =  -1.6200000000000E+00
(PID.TID 0000.0001) %MON dynstat_theta_mean           =  -1.6200000000000E+00
(PID.TID 0000.0001) %MON dynstat_theta_sd             =   0.0000000000000E+00
(PID.TID 0000.0001) %MON dynstat_theta_del2           =   0.0000000000000E+00
(PID.TID 0000.0001) %MON dynstat_salt_max             =   3.0000000000000E+01
(PID.TID 0000.0001) %MON dynstat_salt_min             =   3.0000000000000E+01
(PID.TID 0000.0001) %MON dynstat_salt_mean            =   3.0000000000000E+01
(PID.TID 0000.0001) %MON dynstat_salt_sd              =   0.0000000000000E+00
(PID.TID 0000.0001) %MON dynstat_salt_del2            =   0.0000000000000E+00
(PID.TID 0000.0001) %MON trAdv_CFL_u_max              =   3.0761718750000E-06
(PID.TID 0000.0001) %MON trAdv_CFL_v_max              =   3.0761718750000E-06
(PID.TID 0000.0001) %MON trAdv_CFL_w_max              =   2.9785156250000E-06
(PID.TID 0000.0001) %MON advcfl_uvel_max              =   3.0761718750000E-06
(PID.TID 0000.0001) %MON advcfl_vvel_max              =   3.0761718750000E-06
(PID.TID 0000.0001) %MON advcfl_wvel_max              =   5.9570312500000E-06
(PID.TID 0000.0001) %MON advcfl_W_hf_max              =   0.0000000000000E+00
(PID.TID 0000.0001) %MON pe_b_mean                    =   0.0000000000000E+00
(PID.TID 0000.0001) %MON ke_max                       =   9.0844726562500E-05
(PID.TID 0000.0001) %MON ke_mean                      =   3.2804489135742E-05
(PID.TID 0000.0001) %MON ke_vol                       =   2.6214400000000E+12
(PID.TID 0000.0001) %MON vort_r_min                   =  -7.8125000000000E-08
(PID.TID 0000.0001) %MON vort_r_max                   =   1.2304687500000E-06
(PID.TID 0000.0001) %MON vort_a_mean                  =   1.4856000000000E-04
(PID.TID 0000.0001) %MON vort_a_sd                    =   1.5312918562496E-06
(PID.TID 0000.0001) %MON vort_p_mean                  =   1.5552375000000E-04
(PID.TID 0000.0001) %MON vort_p_sd                    =   5.5921473110222E-05
(PID.TID 0000.0001) %MON surfExpan_theta_mean         =   0.0000000000000E+00
(PID.TID 0000.0001) %MON surfExpan_salt_mean          =   1.3877787807814E-23
(PID.TID 0000.0001) // =======================================================
(PID.TID 0000.0001) // End MONITOR dynamic field statistics
(PID.TID 0000.0001) // =======================================================
(PID.TID 0000.0001) // =======================================================
(PID.TID 0000.0001) // Begin MONITOR SEAICE statistics
(PID.TID 0000.0001) // =======================================================
(PID.TID 0000.0001) %MON seaice_tsnumber              =                     9
(PID.TID 0000.0001) %MON seaice_time_sec              =   2.2500000000000E+01
(PID.TID 0000.0001) %MON seaice_uice_max              =   1.5525260919407E-02
(PID.TID 0000.0001) %MON seaice_uice_min              =  -1.5854908570846E-02
(PID.TID 0000.0001) %MON seaice_uice_mean             =  -3.6001960968916E-07
(PID.TID 0000.0001) %MON seaice_uice_sd               =   6.6924879736496E-03
(PID.TID 0000.0001) %MON seaice_uice_del2             =   1.9781831431275E-06
(PID.TID 0000.0001) %MON seaice_vice_max              =   1.5165094757319E-02
(PID.TID 0000.0001) %MON seaice_vice_min              =  -1.5348756874929E-02
(PID.TID 0000.0001) %MON seaice_vice_mean             =   1.7301551682757E-06
(PID.TID 0000.0001) %MON seaice_vice_sd               =   6.6602583116426E-03
(PID.TID 0000.0001) %MON seaice_vice_del2             =   1.9810229054663E-06
(PID.TID 0000.0001) %MON seaice_area_max              =   1.0000000000000E+00
(PID.TID 0000.0001) %MON seaice_area_min              =   9.9999687753594E-01
(PID.TID 0000.0001) %MON seaice_area_mean             =   9.9999981173201E-01
(PID.TID 0000.0001) %MON seaice_area_sd               =   4.2120797206723E-07
(PID.TID 0000.0001) %MON seaice_area_del2             =   4.8292397555369E-09
(PID.TID 0000.0001) %MON seaice_heff_max              =   3.0999862316978E-01
(PID.TID 0000.0001) %MON seaice_heff_min              =   2.9006051437086E-01
(PID.TID 0000.0001) %MON seaice_heff_mean             =   3.0067126525963E-01
(PID.TID 0000.0001) %MON seaice_heff_sd               =   5.0069235741345E-03
(PID.TID 0000.0001) %MON seaice_heff_del2             =   1.2853746087776E-05
(PID.TID 0000.0001) %MON seaice_hsnow_max             =   0.0000000000000E+00
(PID.TID 0000.0001) %MON seaice_hsnow_min             =   0.0000000000000E+00
(PID.TID 0000.0001) %MON seaice_hsnow_mean            =   0.0000000000000E+00
(PID.TID 0000.0001) %MON seaice_hsnow_sd              =   0.0000000000000E+00
(PID.TID 0000.0001) %MON seaice_hsnow_del2            =   0.0000000000000E+00
(PID.TID 0000.0001) // =======================================================
(PID.TID 0000.0001) // End MONITOR SEAICE statistics
(PID.TID 0000.0001) // =======================================================
 Computing Diagnostic #    163  SIuice       Counter:       1   Parms: UU      M1      
           Vector  Mate for  SIuice       Diagnostic #    164  SIvice   exists 
 Computing Diagnostic #    164  SIvice       Counter:       1   Parms: VV      M1      
           Vector  Mate for  SIvice       Diagnostic #    163  SIuice   exists 
 Computing Diagnostic #    149  SIheff       Counter:       1   Parms: SM      M1      
 Computing Diagnostic #    146  SIarea       Counter:       1   Parms: SM      M1      
 Computing Diagnostic #    228  SIshear      Counter:       1   Parms: SM      M1      
 Computing Diagnostic #    233  SIcohes      Counter:       1   Parms: SM      M1      
 Computing Diagnostic #    221  SIsig1       Counter:       1   Parms: SM      M1      
 Computing Diagnostic #    222  SIsig2       Counter:       1   Parms: SM      M1      
 Computing Diagnostic #    231  SIdamage     Counter:       1   Parms: SM      M1      
 Computing Diagnostic #    165  SItaux       Counter:       1   Parms: UU      U1      
           Vector  Mate for  SItaux       Diagnostic #    166  SItauy   exists 
 Computing Diagnostic #    166  SItauy       Counter:       1   Parms: VV      U1      
           Vector  Mate for  SItauy       Diagnostic #    165  SItaux   exists 
 Computing Diagnostic #    133  EXFuwind     Counter:       1   Parms: UM      U1      
 Computing Diagnostic #    134  EXFvwind     Counter:       1   Parms: VM      U1      
(PID.TID 0000.0001)  S/R SEAICE_KRYLOV: Picard iterate / total, KRYLOVgamma_lin, initial norm =       1    901 0.10000E+00 0.11048E+00
(PID.TID 0000.0001)  S/R SEAICE_KRYLOV: Picard iterate / total =      1 /    901, Nb. of FGMRES iterations =      1
(PID.TID 0000.0001)  S/R SEAICE_KRYLOV: Picard iterate / total, KRYLOVgamma_lin, initial norm =       2    902 0.50000E-01 0.21558E-03
(PID.TID 0000.0001)  S/R SEAICE_KRYLOV: Picard iterate / total =      2 /    902, Nb. of FGMRES iterations =      1
(PID.TID 0000.0001)  S/R SEAICE_KRYLOV: Picard iterate / total, KRYLOVgamma_lin, initial norm =       3    903 0.50000E-01 0.20985E-04
(PID.TID 0000.0001)  S/R SEAICE_KRYLOV: Picard iterate / total =      3 /    903, Nb. of FGMRES iterations =      1
(PID.TID 0000.0001)  S/R SEAICE_KRYLOV: Picard iterate / total, KRYLOVgamma_lin, initial norm =       4    904 0.33333E-01 0.16300E-04
(PID.TID 0000.0001)  S/R SEAICE_KRYLOV: Picard iterate / total =      4 /    904, Nb. of FGMRES iterations =      1
(PID.TID 0000.0001)  S/R SEAICE_KRYLOV: Picard iterate / total, KRYLOVgamma_lin, initial norm =       5    905 0.33333E-01 0.75992E-05
(PID.TID 0000.0001)  S/R SEAICE_KRYLOV: Picard iterate / total =      5 /    905, Nb. of FGMRES iterations =      1
(PID.TID 0000.0001)  S/R SEAICE_KRYLOV: Picard iterate / total, KRYLOVgamma_lin, initial norm =       6    906 0.33333E-01 0.38453E-05
(PID.TID 0000.0001)  S/R SEAICE_KRYLOV: Picard iterate / total =      6 /    906, Nb. of FGMRES iterations =      1
(PID.TID 0000.0001)  S/R SEAICE_KRYLOV: Picard iterate / total, KRYLOVgamma_lin, initial norm =       7    907 0.33333E-01 0.19188E-05
(PID.TID 0000.0001)  S/R SEAICE_KRYLOV: Picard iterate / total =      7 /    907, Nb. of FGMRES iterations =      1
(PID.TID 0000.0001)  S/R SEAICE_KRYLOV: Picard iterate / total, KRYLOVgamma_lin, initial norm =       8    908 0.25000E-01 0.95973E-06
(PID.TID 0000.0001)  S/R SEAICE_KRYLOV: Picard iterate / total =      8 /    908, Nb. of FGMRES iterations =      1
(PID.TID 0000.0001)  S/R SEAICE_KRYLOV: Picard iterate / total, KRYLOVgamma_lin, initial norm =       9    909 0.20000E-01 0.47984E-06
(PID.TID 0000.0001)  S/R SEAICE_KRYLOV: Picard iterate / total =      9 /    909, Nb. of FGMRES iterations =      1
(PID.TID 0000.0001)  S/R SEAICE_KRYLOV: Picard iterate / total, KRYLOVgamma_lin, initial norm =      10    910 0.12500E-01 0.23992E-06
(PID.TID 0000.0001)  S/R SEAICE_KRYLOV: Picard iterate / total =     10 /    910, Nb. of FGMRES iterations =      1
(PID.TID 0000.0001)  S/R SEAICE_KRYLOV: Picard iterate / total, KRYLOVgamma_lin, initial norm =      11    911 0.12500E-01 0.11996E-06
(PID.TID 0000.0001)  S/R SEAICE_KRYLOV: Picard iterate / total =     11 /    911, Nb. of FGMRES iterations =      1
(PID.TID 0000.0001)  S/R SEAICE_KRYLOV: Picard iterate / total, KRYLOVgamma_lin, initial norm =      12    912 0.12500E-01 0.59980E-07
(PID.TID 0000.0001)  S/R SEAICE_KRYLOV: Picard iterate / total =     12 /    912, Nb. of FGMRES iterations =      1
(PID.TID 0000.0001)  S/R SEAICE_KRYLOV: Picard iterate / total, KRYLOVgamma_lin, initial norm =      13    913 0.12500E-01 0.29990E-07
(PID.TID 0000.0001)  S/R SEAICE_KRYLOV: Picard iterate / total =     13 /    913, Nb. of FGMRES iterations =      1
(PID.TID 0000.0001)  S/R SEAICE_KRYLOV: Picard iterate / total, KRYLOVgamma_lin, initial norm =      14    914 0.12500E-01 0.14995E-07
(PID.TID 0000.0001)  S/R SEAICE_KRYLOV: Picard iterate / total =     14 /    914, Nb. of FGMRES iterations =      1
(PID.TID 0000.0001)  S/R SEAICE_KRYLOV: Picard iterate / total, KRYLOVgamma_lin, initial norm =      15    915 0.12500E-01 0.74975E-08
(PID.TID 0000.0001)  S/R SEAICE_KRYLOV: Picard iterate / total =     15 /    915, Nb. of FGMRES iterations =      1
(PID.TID 0000.0001)  S/R SEAICE_KRYLOV: Picard iterate / total, KRYLOVgamma_lin, initial norm =      16    916 0.12500E-01 0.37488E-08
(PID.TID 0000.0001)  S/R SEAICE_KRYLOV: Picard iterate / total =     16 /    916, Nb. of FGMRES iterations =      1
(PID.TID 0000.0001)  S/R SEAICE_KRYLOV: Picard iterate / total, KRYLOVgamma_lin, initial norm =      17    917 0.12500E-01 0.18744E-08
(PID.TID 0000.0001)  S/R SEAICE_KRYLOV: Picard iterate / total =     17 /    917, Nb. of FGMRES iterations =      1
(PID.TID 0000.0001)  S/R SEAICE_KRYLOV: Picard iterate / total, KRYLOVgamma_lin, initial norm =      18    918 0.12500E-01 0.93719E-09
(PID.TID 0000.0001)  S/R SEAICE_KRYLOV: Picard iterate / total =     18 /    918, Nb. of FGMRES iterations =      1
(PID.TID 0000.0001)  S/R SEAICE_KRYLOV: Picard iterate / total, KRYLOVgamma_lin, initial norm =      19    919 0.12500E-01 0.46860E-09
(PID.TID 0000.0001)  S/R SEAICE_KRYLOV: Picard iterate / total =     19 /    919, Nb. of FGMRES iterations =      1
(PID.TID 0000.0001)  S/R SEAICE_KRYLOV: Picard iterate / total, KRYLOVgamma_lin, initial norm =      20    920 0.12500E-01 0.23430E-09
(PID.TID 0000.0001)  S/R SEAICE_KRYLOV: Picard iterate / total =     20 /    920, Nb. of FGMRES iterations =      1
(PID.TID 0000.0001)  S/R SEAICE_KRYLOV: Picard iterate / total, KRYLOVgamma_lin, initial norm =      21    921 0.12500E-01 0.11715E-09
(PID.TID 0000.0001)  S/R SEAICE_KRYLOV: Picard iterate / total =     21 /    921, Nb. of FGMRES iterations =      1
(PID.TID 0000.0001)  S/R SEAICE_KRYLOV: Picard iterate / total, KRYLOVgamma_lin, initial norm =      22    922 0.12500E-01 0.58574E-10
(PID.TID 0000.0001)  S/R SEAICE_KRYLOV: Picard iterate / total =     22 /    922, Nb. of FGMRES iterations =      1
(PID.TID 0000.0001)  S/R SEAICE_KRYLOV: Picard iterate / total, KRYLOVgamma_lin, initial norm =      23    923 0.12500E-01 0.29287E-10
(PID.TID 0000.0001)  S/R SEAICE_KRYLOV: Picard iterate / total =     23 /    923, Nb. of FGMRES iterations =      1
(PID.TID 0000.0001)  S/R SEAICE_KRYLOV: Picard iterate / total, KRYLOVgamma_lin, initial norm =      24    924 0.12500E-01 0.14644E-10
(PID.TID 0000.0001)  S/R SEAICE_KRYLOV: Picard iterate / total =     24 /    924, Nb. of FGMRES iterations =      1
(PID.TID 0000.0001)  S/R SEAICE_KRYLOV: Picard iterate / total, KRYLOVgamma_lin, initial norm =      25    925 0.12500E-01 0.73218E-11
(PID.TID 0000.0001)  S/R SEAICE_KRYLOV: Picard iterate / total =     25 /    925, Nb. of FGMRES iterations =      1
(PID.TID 0000.0001)  S/R SEAICE_KRYLOV: Picard iterate / total, KRYLOVgamma_lin, initial norm =      26    926 0.12500E-01 0.36609E-11
(PID.TID 0000.0001)  S/R SEAICE_KRYLOV: Picard iterate / total =     26 /    926, Nb. of FGMRES iterations =      1
(PID.TID 0000.0001)  S/R SEAICE_KRYLOV: Picard iterate / total, KRYLOVgamma_lin, initial norm =      27    927 0.12500E-01 0.18304E-11
(PID.TID 0000.0001)  S/R SEAICE_KRYLOV: Picard iterate / total =     27 /    927, Nb. of FGMRES iterations =      1
(PID.TID 0000.0001)  S/R SEAICE_KRYLOV: Picard iterate / total, KRYLOVgamma_lin, initial norm =      28    928 0.12500E-01 0.91523E-12
(PID.TID 0000.0001)  S/R SEAICE_KRYLOV: Picard iterate / total =     28 /    928, Nb. of FGMRES iterations =      1
(PID.TID 0000.0001)  S/R SEAICE_KRYLOV: Picard iterate / total, KRYLOVgamma_lin, initial norm =      29    929 0.12500E-01 0.45761E-12
(PID.TID 0000.0001)  S/R SEAICE_KRYLOV: Picard iterate / total =     29 /    929, Nb. of FGMRES iterations =      1
(PID.TID 0000.0001)  S/R SEAICE_KRYLOV: Picard iterate / total, KRYLOVgamma_lin, initial norm =      30    930 0.12500E-01 0.22881E-12
(PID.TID 0000.0001)  S/R SEAICE_KRYLOV: Picard iterate / total =     30 /    930, Nb. of FGMRES iterations =      1
(PID.TID 0000.0001)  S/R SEAICE_KRYLOV: Picard iterate / total, KRYLOVgamma_lin, initial norm =      31    931 0.12500E-01 0.11440E-12
(PID.TID 0000.0001)  S/R SEAICE_KRYLOV: Picard iterate / total =     31 /    931, Nb. of FGMRES iterations =      1
(PID.TID 0000.0001)  S/R SEAICE_KRYLOV: Picard iterate / total, KRYLOVgamma_lin, final   norm =      32    932 0.12500E-01 0.57204E-13
(PID.TID 0000.0001)  // =======================================================
(PID.TID 0000.0001)  // Begin KRYLOV statistics
(PID.TID 0000.0001)  // =======================================================
(PID.TID 0000.0001)  %KRYLOV_MON: time step              =         10
(PID.TID 0000.0001)  %KRYLOV_MON: Nb. of time steps      =          1
(PID.TID 0000.0001)  %KRYLOV_MON: Nb. of Picard steps    =         32
(PID.TID 0000.0001)  %KRYLOV_MON: Nb. of Krylov steps    =         31
(PID.TID 0000.0001)  %KRYLOV_MON: Nb. of Picard failures =          0
(PID.TID 0000.0001)  %KRYLOV_MON: Nb. of Krylov failures =          0
(PID.TID 0000.0001)  // =======================================================
(PID.TID 0000.0001)  // End KRYLOV statistics
(PID.TID 0000.0001)  // =======================================================
(PID.TID 0000.0001)  S/R SEAICE_KRYLOV: Total number FGMRES iterations =     31 in timestep         10
(PID.TID 0000.0001) // =======================================================
(PID.TID 0000.0001) // Begin MONITOR dynamic field statistics
(PID.TID 0000.0001) // =======================================================
(PID.TID 0000.0001) %MON time_tsnumber                =                    10
(PID.TID 0000.0001) %MON time_secondsf                =   2.5000000000000E+01
(PID.TID 0000.0001) %MON dynstat_eta_max              =   0.0000000000000E+00
(PID.TID 0000.0001) %MON dynstat_eta_min              =   0.0000000000000E+00
(PID.TID 0000.0001) %MON dynstat_eta_mean             =   0.0000000000000E+00
(PID.TID 0000.0001) %MON dynstat_eta_sd               =   0.0000000000000E+00
(PID.TID 0000.0001) %MON dynstat_eta_del2             =   0.0000000000000E+00
(PID.TID 0000.0001) %MON dynstat_uvel_max             =   9.8437500000000E-03
(PID.TID 0000.0001) %MON dynstat_uvel_min             =  -9.8437500000000E-03
(PID.TID 0000.0001) %MON dynstat_uvel_mean            =   0.0000000000000E+00
(PID.TID 0000.0001) %MON dynstat_uvel_sd              =   5.7727978755972E-03
(PID.TID 0000.0001) %MON dynstat_uvel_del2            =   1.0089048364799E-20
(PID.TID 0000.0001) %MON dynstat_vvel_max             =   9.8437500000000E-03
(PID.TID 0000.0001) %MON dynstat_vvel_min             =  -9.8437500000000E-03
(PID.TID 0000.0001) %MON dynstat_vvel_mean            =   0.0000000000000E+00
(PID.TID 0000.0001) %MON dynstat_vvel_sd              =   5.7727978755972E-03
(PID.TID 0000.0001) %MON dynstat_vvel_del2            =   1.0089048364799E-20
(PID.TID 0000.0001) %MON dynstat_wvel_max             =   1.1914062500000E-05
(PID.TID 0000.0001) %MON dynstat_wvel_min             =  -1.1914062500000E-05
(PID.TID 0000.0001) %MON dynstat_wvel_mean            =   3.4694469519536E-25
(PID.TID 0000.0001) %MON dynstat_wvel_sd              =   1.7200872247780E-06
(PID.TID 0000.0001) %MON dynstat_wvel_del2            =   2.8187489626940E-08
(PID.TID 0000.0001) %MON dynstat_theta_max            =  -1.6200000000000E+00
(PID.TID 0000.0001) %MON dynstat_theta_min            =  -1.6200000000000E+00
(PID.TID 0000.0001) %MON dynstat_theta_mean           =  -1.6200000000000E+00
(PID.TID 0000.0001) %MON dynstat_theta_sd             =   0.0000000000000E+00
(PID.TID 0000.0001) %MON dynstat_theta_del2           =   0.0000000000000E+00
(PID.TID 0000.0001) %MON dynstat_salt_max             =   3.0000000000000E+01
(PID.TID 0000.0001) %MON dynstat_salt_min             =   3.0000000000000E+01
(PID.TID 0000.0001) %MON dynstat_salt_mean            =   3.0000000000000E+01
(PID.TID 0000.0001) %MON dynstat_salt_sd              =   0.0000000000000E+00
(PID.TID 0000.0001) %MON dynstat_salt_del2            =   0.0000000000000E+00
(PID.TID 0000.0001) %MON trAdv_CFL_u_max              =   3.0761718750000E-06
(PID.TID 0000.0001) %MON trAdv_CFL_v_max              =   3.0761718750000E-06
(PID.TID 0000.0001) %MON trAdv_CFL_w_max              =   2.9785156250000E-06
(PID.TID 0000.0001) %MON advcfl_uvel_max              =   3.0761718750000E-06
(PID.TID 0000.0001) %MON advcfl_vvel_max              =   3.0761718750000E-06
(PID.TID 0000.0001) %MON advcfl_wvel_max              =   5.9570312500000E-06
(PID.TID 0000.0001) %MON advcfl_W_hf_max              =   0.0000000000000E+00
(PID.TID 0000.0001) %MON pe_b_mean                    =   0.0000000000000E+00
(PID.TID 0000.0001) %MON ke_max                       =   9.0844726562500E-05
(PID.TID 0000.0001) %MON ke_mean                      =   3.2804489135742E-05
(PID.TID 0000.0001) %MON ke_vol                       =   2.6214400000000E+12
(PID.TID 0000.0001) %MON vort_r_min                   =  -7.8125000000000E-08
(PID.TID 0000.0001) %MON vort_r_max                   =   1.2304687500000E-06
(PID.TID 0000.0001) %MON vort_a_mean                  =   1.4856000000000E-04
(PID.TID 0000.0001) %MON vort_a_sd                    =   1.5312918562496E-06
(PID.TID 0000.0001) %MON vort_p_mean                  =   1.5552375000000E-04
(PID.TID 0000.0001) %MON vort_p_sd                    =   5.5921473110222E-05
(PID.TID 0000.0001) %MON surfExpan_theta_mean         =   0.0000000000000E+00
(PID.TID 0000.0001) %MON surfExpan_salt_mean          =   1.3877787807814E-23
(PID.TID 0000.0001) // =======================================================
(PID.TID 0000.0001) // End MONITOR dynamic field statistics
(PID.TID 0000.0001) // =======================================================
(PID.TID 0000.0001) // =======================================================
(PID.TID 0000.0001) // Begin MONITOR SEAICE statistics
(PID.TID 0000.0001) // =======================================================
(PID.TID 0000.0001) %MON seaice_tsnumber              =                    10
(PID.TID 0000.0001) %MON seaice_time_sec              =   2.5000000000000E+01
(PID.TID 0000.0001) %MON seaice_uice_max              =   1.7220104525707E-02
(PID.TID 0000.0001) %MON seaice_uice_min              =  -1.7585871896396E-02
(PID.TID 0000.0001) %MON seaice_uice_mean             =  -4.0505462597007E-07
(PID.TID 0000.0001) %MON seaice_uice_sd               =   7.4229186272036E-03
(PID.TID 0000.0001) %MON seaice_uice_del2             =   2.1886208783783E-06
(PID.TID 0000.0001) %MON seaice_vice_max              =   1.6824236901896E-02
(PID.TID 0000.0001) %MON seaice_vice_min              =  -1.7028454635121E-02
(PID.TID 0000.0001) %MON seaice_vice_mean             =   1.9365997924194E-06
(PID.TID 0000.0001) %MON seaice_vice_sd               =   7.3873360602440E-03
(PID.TID 0000.0001) %MON seaice_vice_del2             =   2.1926789093052E-06
(PID.TID 0000.0001) %MON seaice_area_max              =   1.0000000000000E+00
(PID.TID 0000.0001) %MON seaice_area_min              =   9.9999617164699E-01
(PID.TID 0000.0001) %MON seaice_area_mean             =   9.9999977054515E-01
(PID.TID 0000.0001) %MON seaice_area_sd               =   5.1555071626158E-07
(PID.TID 0000.0001) %MON seaice_area_del2             =   6.0357802950616E-09
(PID.TID 0000.0001) %MON seaice_heff_max              =   3.0999861219160E-01
(PID.TID 0000.0001) %MON seaice_heff_min              =   2.9006050302104E-01
(PID.TID 0000.0001) %MON seaice_heff_mean             =   3.0067126525963E-01
(PID.TID 0000.0001) %MON seaice_heff_sd               =   5.0069237869741E-03
(PID.TID 0000.0001) %MON seaice_heff_del2             =   1.2853745244444E-05
(PID.TID 0000.0001) %MON seaice_hsnow_max             =   0.0000000000000E+00
(PID.TID 0000.0001) %MON seaice_hsnow_min             =   0.0000000000000E+00
(PID.TID 0000.0001) %MON seaice_hsnow_mean            =   0.0000000000000E+00
(PID.TID 0000.0001) %MON seaice_hsnow_sd              =   0.0000000000000E+00
(PID.TID 0000.0001) %MON seaice_hsnow_del2            =   0.0000000000000E+00
(PID.TID 0000.0001) // =======================================================
(PID.TID 0000.0001) // End MONITOR SEAICE statistics
(PID.TID 0000.0001) // =======================================================
 Computing Diagnostic #    163  SIuice       Counter:       1   Parms: UU      M1      
           Vector  Mate for  SIuice       Diagnostic #    164  SIvice   exists 
 Computing Diagnostic #    164  SIvice       Counter:       1   Parms: VV      M1      
           Vector  Mate for  SIvice       Diagnostic #    163  SIuice   exists 
 Computing Diagnostic #    149  SIheff       Counter:       1   Parms: SM      M1      
 Computing Diagnostic #    146  SIarea       Counter:       1   Parms: SM      M1      
 Computing Diagnostic #    228  SIshear      Counter:       1   Parms: SM      M1      
 Computing Diagnostic #    233  SIcohes      Counter:       1   Parms: SM      M1      
 Computing Diagnostic #    221  SIsig1       Counter:       1   Parms: SM      M1      
 Computing Diagnostic #    222  SIsig2       Counter:       1   Parms: SM      M1      
 Computing Diagnostic #    231  SIdamage     Counter:       1   Parms: SM      M1      
 Computing Diagnostic #    165  SItaux       Counter:       1   Parms: UU      U1      
           Vector  Mate for  SItaux       Diagnostic #    166  SItauy   exists 
 Computing Diagnostic #    166  SItauy       Counter:       1   Parms: VV      U1      
           Vector  Mate for  SItauy       Diagnostic #    165  SItaux   exists 
 Computing Diagnostic #    133  EXFuwind     Counter:       1   Parms: UM      U1      
 Computing Diagnostic #    134  EXFvwind     Counter:       1   Parms: VM      U1      
(PID.TID 0000.0001)  S/R SEAICE_KRYLOV: Picard iterate / total, KRYLOVgamma_lin, initial norm =       1   1001 0.10000E+00 0.11017E+00
(PID.TID 0000.0001)  S/R SEAICE_KRYLOV: Picard iterate / total =      1 /   1001, Nb. of FGMRES iterations =      1
(PID.TID 0000.0001)  S/R SEAICE_KRYLOV: Picard iterate / total, KRYLOVgamma_lin, initial norm =       2   1002 0.50000E-01 0.19963E-03
(PID.TID 0000.0001)  S/R SEAICE_KRYLOV: Picard iterate / total =      2 /   1002, Nb. of FGMRES iterations =      1
(PID.TID 0000.0001)  S/R SEAICE_KRYLOV: Picard iterate / total, KRYLOVgamma_lin, initial norm =       3   1003 0.50000E-01 0.19449E-04
(PID.TID 0000.0001)  S/R SEAICE_KRYLOV: Picard iterate / total =      3 /   1003, Nb. of FGMRES iterations =      1
(PID.TID 0000.0001)  S/R SEAICE_KRYLOV: Picard iterate / total, KRYLOVgamma_lin, initial norm =       4   1004 0.33333E-01 0.14800E-04
(PID.TID 0000.0001)  S/R SEAICE_KRYLOV: Picard iterate / total =      4 /   1004, Nb. of FGMRES iterations =      1
(PID.TID 0000.0001)  S/R SEAICE_KRYLOV: Picard iterate / total, KRYLOVgamma_lin, initial norm =       5   1005 0.33333E-01 0.69108E-05
(PID.TID 0000.0001)  S/R SEAICE_KRYLOV: Picard iterate / total =      5 /   1005, Nb. of FGMRES iterations =      1
(PID.TID 0000.0001)  S/R SEAICE_KRYLOV: Picard iterate / total, KRYLOVgamma_lin, initial norm =       6   1006 0.33333E-01 0.34955E-05
(PID.TID 0000.0001)  S/R SEAICE_KRYLOV: Picard iterate / total =      6 /   1006, Nb. of FGMRES iterations =      1
(PID.TID 0000.0001)  S/R SEAICE_KRYLOV: Picard iterate / total, KRYLOVgamma_lin, initial norm =       7   1007 0.33333E-01 0.17444E-05
(PID.TID 0000.0001)  S/R SEAICE_KRYLOV: Picard iterate / total =      7 /   1007, Nb. of FGMRES iterations =      1
(PID.TID 0000.0001)  S/R SEAICE_KRYLOV: Picard iterate / total, KRYLOVgamma_lin, initial norm =       8   1008 0.25000E-01 0.87248E-06
(PID.TID 0000.0001)  S/R SEAICE_KRYLOV: Picard iterate / total =      8 /   1008, Nb. of FGMRES iterations =      1
(PID.TID 0000.0001)  S/R SEAICE_KRYLOV: Picard iterate / total, KRYLOVgamma_lin, initial norm =       9   1009 0.20000E-01 0.43622E-06
(PID.TID 0000.0001)  S/R SEAICE_KRYLOV: Picard iterate / total =      9 /   1009, Nb. of FGMRES iterations =      1
(PID.TID 0000.0001)  S/R SEAICE_KRYLOV: Picard iterate / total, KRYLOVgamma_lin, initial norm =      10   1010 0.12500E-01 0.21811E-06
(PID.TID 0000.0001)  S/R SEAICE_KRYLOV: Picard iterate / total =     10 /   1010, Nb. of FGMRES iterations =      1
(PID.TID 0000.0001)  S/R SEAICE_KRYLOV: Picard iterate / total, KRYLOVgamma_lin, initial norm =      11   1011 0.12500E-01 0.10905E-06
(PID.TID 0000.0001)  S/R SEAICE_KRYLOV: Picard iterate / total =     11 /   1011, Nb. of FGMRES iterations =      1
(PID.TID 0000.0001)  S/R SEAICE_KRYLOV: Picard iterate / total, KRYLOVgamma_lin, initial norm =      12   1012 0.12500E-01 0.54527E-07
(PID.TID 0000.0001)  S/R SEAICE_KRYLOV: Picard iterate / total =     12 /   1012, Nb. of FGMRES iterations =      1
(PID.TID 0000.0001)  S/R SEAICE_KRYLOV: Picard iterate / total, KRYLOVgamma_lin, initial norm =      13   1013 0.12500E-01 0.27264E-07
(PID.TID 0000.0001)  S/R SEAICE_KRYLOV: Picard iterate / total =     13 /   1013, Nb. of FGMRES iterations =      1
(PID.TID 0000.0001)  S/R SEAICE_KRYLOV: Picard iterate / total, KRYLOVgamma_lin, initial norm =      14   1014 0.12500E-01 0.13632E-07
(PID.TID 0000.0001)  S/R SEAICE_KRYLOV: Picard iterate / total =     14 /   1014, Nb. of FGMRES iterations =      1
(PID.TID 0000.0001)  S/R SEAICE_KRYLOV: Picard iterate / total, KRYLOVgamma_lin, initial norm =      15   1015 0.12500E-01 0.68159E-08
(PID.TID 0000.0001)  S/R SEAICE_KRYLOV: Picard iterate / total =     15 /   1015, Nb. of FGMRES iterations =      1
(PID.TID 0000.0001)  S/R SEAICE_KRYLOV: Picard iterate / total, KRYLOVgamma_lin, initial norm =      16   1016 0.12500E-01 0.34080E-08
(PID.TID 0000.0001)  S/R SEAICE_KRYLOV: Picard iterate / total =     16 /   1016, Nb. of FGMRES iterations =      1
(PID.TID 0000.0001)  S/R SEAICE_KRYLOV: Picard iterate / total, KRYLOVgamma_lin, initial norm =      17   1017 0.12500E-01 0.17040E-08
(PID.TID 0000.0001)  S/R SEAICE_KRYLOV: Picard iterate / total =     17 /   1017, Nb. of FGMRES iterations =      1
(PID.TID 0000.0001)  S/R SEAICE_KRYLOV: Picard iterate / total, KRYLOVgamma_lin, initial norm =      18   1018 0.12500E-01 0.85199E-09
(PID.TID 0000.0001)  S/R SEAICE_KRYLOV: Picard iterate / total =     18 /   1018, Nb. of FGMRES iterations =      1
(PID.TID 0000.0001)  S/R SEAICE_KRYLOV: Picard iterate / total, KRYLOVgamma_lin, initial norm =      19   1019 0.12500E-01 0.42599E-09
(PID.TID 0000.0001)  S/R SEAICE_KRYLOV: Picard iterate / total =     19 /   1019, Nb. of FGMRES iterations =      1
(PID.TID 0000.0001)  S/R SEAICE_KRYLOV: Picard iterate / total, KRYLOVgamma_lin, initial norm =      20   1020 0.12500E-01 0.21300E-09
(PID.TID 0000.0001)  S/R SEAICE_KRYLOV: Picard iterate / total =     20 /   1020, Nb. of FGMRES iterations =      1
(PID.TID 0000.0001)  S/R SEAICE_KRYLOV: Picard iterate / total, KRYLOVgamma_lin, initial norm =      21   1021 0.12500E-01 0.10650E-09
(PID.TID 0000.0001)  S/R SEAICE_KRYLOV: Picard iterate / total =     21 /   1021, Nb. of FGMRES iterations =      1
(PID.TID 0000.0001)  S/R SEAICE_KRYLOV: Picard iterate / total, KRYLOVgamma_lin, initial norm =      22   1022 0.12500E-01 0.53249E-10
(PID.TID 0000.0001)  S/R SEAICE_KRYLOV: Picard iterate / total =     22 /   1022, Nb. of FGMRES iterations =      1
(PID.TID 0000.0001)  S/R SEAICE_KRYLOV: Picard iterate / total, KRYLOVgamma_lin, initial norm =      23   1023 0.12500E-01 0.26625E-10
(PID.TID 0000.0001)  S/R SEAICE_KRYLOV: Picard iterate / total =     23 /   1023, Nb. of FGMRES iterations =      1
(PID.TID 0000.0001)  S/R SEAICE_KRYLOV: Picard iterate / total, KRYLOVgamma_lin, initial norm =      24   1024 0.12500E-01 0.13312E-10
(PID.TID 0000.0001)  S/R SEAICE_KRYLOV: Picard iterate / total =     24 /   1024, Nb. of FGMRES iterations =      1
(PID.TID 0000.0001)  S/R SEAICE_KRYLOV: Picard iterate / total, KRYLOVgamma_lin, initial norm =      25   1025 0.12500E-01 0.66562E-11
(PID.TID 0000.0001)  S/R SEAICE_KRYLOV: Picard iterate / total =     25 /   1025, Nb. of FGMRES iterations =      1
(PID.TID 0000.0001)  S/R SEAICE_KRYLOV: Picard iterate / total, KRYLOVgamma_lin, initial norm =      26   1026 0.12500E-01 0.33281E-11
(PID.TID 0000.0001)  S/R SEAICE_KRYLOV: Picard iterate / total =     26 /   1026, Nb. of FGMRES iterations =      1
(PID.TID 0000.0001)  S/R SEAICE_KRYLOV: Picard iterate / total, KRYLOVgamma_lin, initial norm =      27   1027 0.12500E-01 0.16640E-11
(PID.TID 0000.0001)  S/R SEAICE_KRYLOV: Picard iterate / total =     27 /   1027, Nb. of FGMRES iterations =      1
(PID.TID 0000.0001)  S/R SEAICE_KRYLOV: Picard iterate / total, KRYLOVgamma_lin, initial norm =      28   1028 0.12500E-01 0.83202E-12
(PID.TID 0000.0001)  S/R SEAICE_KRYLOV: Picard iterate / total =     28 /   1028, Nb. of FGMRES iterations =      1
(PID.TID 0000.0001)  S/R SEAICE_KRYLOV: Picard iterate / total, KRYLOVgamma_lin, initial norm =      29   1029 0.12500E-01 0.41601E-12
(PID.TID 0000.0001)  S/R SEAICE_KRYLOV: Picard iterate / total =     29 /   1029, Nb. of FGMRES iterations =      1
(PID.TID 0000.0001)  S/R SEAICE_KRYLOV: Picard iterate / total, KRYLOVgamma_lin, initial norm =      30   1030 0.12500E-01 0.20801E-12
(PID.TID 0000.0001)  S/R SEAICE_KRYLOV: Picard iterate / total =     30 /   1030, Nb. of FGMRES iterations =      1
(PID.TID 0000.0001)  S/R SEAICE_KRYLOV: Picard iterate / total, KRYLOVgamma_lin, final   norm =      31   1031 0.12500E-01 0.10400E-12
(PID.TID 0000.0001)  // =======================================================
(PID.TID 0000.0001)  // Begin KRYLOV statistics
(PID.TID 0000.0001)  // =======================================================
(PID.TID 0000.0001)  %KRYLOV_MON: time step              =         11
(PID.TID 0000.0001)  %KRYLOV_MON: Nb. of time steps      =          1
(PID.TID 0000.0001)  %KRYLOV_MON: Nb. of Picard steps    =         31
(PID.TID 0000.0001)  %KRYLOV_MON: Nb. of Krylov steps    =         30
(PID.TID 0000.0001)  %KRYLOV_MON: Nb. of Picard failures =          0
(PID.TID 0000.0001)  %KRYLOV_MON: Nb. of Krylov failures =          0
(PID.TID 0000.0001)  // =======================================================
(PID.TID 0000.0001)  // End KRYLOV statistics
(PID.TID 0000.0001)  // =======================================================
(PID.TID 0000.0001)  S/R SEAICE_KRYLOV: Total number FGMRES iterations =     30 in timestep         11
(PID.TID 0000.0001) // =======================================================
(PID.TID 0000.0001) // Begin MONITOR dynamic field statistics
(PID.TID 0000.0001) // =======================================================
(PID.TID 0000.0001) %MON time_tsnumber                =                    11
(PID.TID 0000.0001) %MON time_secondsf                =   2.7500000000000E+01
(PID.TID 0000.0001) %MON dynstat_eta_max              =   0.0000000000000E+00
(PID.TID 0000.0001) %MON dynstat_eta_min              =   0.0000000000000E+00
(PID.TID 0000.0001) %MON dynstat_eta_mean             =   0.0000000000000E+00
(PID.TID 0000.0001) %MON dynstat_eta_sd               =   0.0000000000000E+00
(PID.TID 0000.0001) %MON dynstat_eta_del2             =   0.0000000000000E+00
(PID.TID 0000.0001) %MON dynstat_uvel_max             =   9.8437500000000E-03
(PID.TID 0000.0001) %MON dynstat_uvel_min             =  -9.8437500000000E-03
(PID.TID 0000.0001) %MON dynstat_uvel_mean            =   0.0000000000000E+00
(PID.TID 0000.0001) %MON dynstat_uvel_sd              =   5.7727978755972E-03
(PID.TID 0000.0001) %MON dynstat_uvel_del2            =   1.0089048364799E-20
(PID.TID 0000.0001) %MON dynstat_vvel_max             =   9.8437500000000E-03
(PID.TID 0000.0001) %MON dynstat_vvel_min             =  -9.8437500000000E-03
(PID.TID 0000.0001) %MON dynstat_vvel_mean            =   0.0000000000000E+00
(PID.TID 0000.0001) %MON dynstat_vvel_sd              =   5.7727978755972E-03
(PID.TID 0000.0001) %MON dynstat_vvel_del2            =   1.0089048364799E-20
(PID.TID 0000.0001) %MON dynstat_wvel_max             =   1.1914062500000E-05
(PID.TID 0000.0001) %MON dynstat_wvel_min             =  -1.1914062500000E-05
(PID.TID 0000.0001) %MON dynstat_wvel_mean            =   3.4694469519536E-25
(PID.TID 0000.0001) %MON dynstat_wvel_sd              =   1.7200872247780E-06
(PID.TID 0000.0001) %MON dynstat_wvel_del2            =   2.8187489626940E-08
(PID.TID 0000.0001) %MON dynstat_theta_max            =  -1.6200000000000E+00
(PID.TID 0000.0001) %MON dynstat_theta_min            =  -1.6200000000000E+00
(PID.TID 0000.0001) %MON dynstat_theta_mean           =  -1.6200000000000E+00
(PID.TID 0000.0001) %MON dynstat_theta_sd             =   0.0000000000000E+00
(PID.TID 0000.0001) %MON dynstat_theta_del2           =   0.0000000000000E+00
(PID.TID 0000.0001) %MON dynstat_salt_max             =   3.0000000000000E+01
(PID.TID 0000.0001) %MON dynstat_salt_min             =   3.0000000000000E+01
(PID.TID 0000.0001) %MON dynstat_salt_mean            =   3.0000000000000E+01
(PID.TID 0000.0001) %MON dynstat_salt_sd              =   0.0000000000000E+00
(PID.TID 0000.0001) %MON dynstat_salt_del2            =   0.0000000000000E+00
(PID.TID 0000.0001) %MON trAdv_CFL_u_max              =   3.0761718750000E-06
(PID.TID 0000.0001) %MON trAdv_CFL_v_max              =   3.0761718750000E-06
(PID.TID 0000.0001) %MON trAdv_CFL_w_max              =   2.9785156250000E-06
(PID.TID 0000.0001) %MON advcfl_uvel_max              =   3.0761718750000E-06
(PID.TID 0000.0001) %MON advcfl_vvel_max              =   3.0761718750000E-06
(PID.TID 0000.0001) %MON advcfl_wvel_max              =   5.9570312500000E-06
(PID.TID 0000.0001) %MON advcfl_W_hf_max              =   0.0000000000000E+00
(PID.TID 0000.0001) %MON pe_b_mean                    =   0.0000000000000E+00
(PID.TID 0000.0001) %MON ke_max                       =   9.0844726562500E-05
(PID.TID 0000.0001) %MON ke_mean                      =   3.2804489135742E-05
(PID.TID 0000.0001) %MON ke_vol                       =   2.6214400000000E+12
(PID.TID 0000.0001) %MON vort_r_min                   =  -7.8125000000000E-08
(PID.TID 0000.0001) %MON vort_r_max                   =   1.2304687500000E-06
(PID.TID 0000.0001) %MON vort_a_mean                  =   1.4856000000000E-04
(PID.TID 0000.0001) %MON vort_a_sd                    =   1.5312918562496E-06
(PID.TID 0000.0001) %MON vort_p_mean                  =   1.5552375000000E-04
(PID.TID 0000.0001) %MON vort_p_sd                    =   5.5921473110222E-05
(PID.TID 0000.0001) %MON surfExpan_theta_mean         =   0.0000000000000E+00
(PID.TID 0000.0001) %MON surfExpan_salt_mean          =   1.3877787807814E-23
(PID.TID 0000.0001) // =======================================================
(PID.TID 0000.0001) // End MONITOR dynamic field statistics
(PID.TID 0000.0001) // =======================================================
(PID.TID 0000.0001) // =======================================================
(PID.TID 0000.0001) // Begin MONITOR SEAICE statistics
(PID.TID 0000.0001) // =======================================================
(PID.TID 0000.0001) %MON seaice_tsnumber              =                    11
(PID.TID 0000.0001) %MON seaice_time_sec              =   2.7500000000000E+01
(PID.TID 0000.0001) %MON seaice_uice_max              =   1.8927106529344E-02
(PID.TID 0000.0001) %MON seaice_uice_min              =  -1.9312654972417E-02
(PID.TID 0000.0001) %MON seaice_uice_mean             =  -4.5265989592270E-07
(PID.TID 0000.0001) %MON seaice_uice_sd               =   8.1512753122820E-03
(PID.TID 0000.0001) %MON seaice_uice_del2             =   2.3945408829324E-06
(PID.TID 0000.0001) %MON seaice_vice_max              =   1.8484158963183E-02
(PID.TID 0000.0001) %MON seaice_vice_min              =  -1.8714597852154E-02
(PID.TID 0000.0001) %MON seaice_vice_mean             =   2.1414157901244E-06
(PID.TID 0000.0001) %MON seaice_vice_sd               =   8.1123748309636E-03
(PID.TID 0000.0001) %MON seaice_vice_del2             =   2.3993486383337E-06
(PID.TID 0000.0001) %MON seaice_area_max              =   1.0000000000000E+00
(PID.TID 0000.0001) %MON seaice_area_min              =   9.9999539123766E-01
(PID.TID 0000.0001) %MON seaice_area_mean             =   9.9999972535682E-01
(PID.TID 0000.0001) %MON seaice_area_sd               =   6.1994517574338E-07
(PID.TID 0000.0001) %MON seaice_area_del2             =   7.3728648785168E-09
(PID.TID 0000.0001) %MON seaice_heff_max              =   3.0999860013505E-01
(PID.TID 0000.0001) %MON seaice_heff_min              =   2.9006049055753E-01
(PID.TID 0000.0001) %MON seaice_heff_mean             =   3.0067126525963E-01
(PID.TID 0000.0001) %MON seaice_heff_sd               =   5.0069240110809E-03
(PID.TID 0000.0001) %MON seaice_heff_del2             =   1.2853744368810E-05
(PID.TID 0000.0001) %MON seaice_hsnow_max             =   0.0000000000000E+00
(PID.TID 0000.0001) %MON seaice_hsnow_min             =   0.0000000000000E+00
(PID.TID 0000.0001) %MON seaice_hsnow_mean            =   0.0000000000000E+00
(PID.TID 0000.0001) %MON seaice_hsnow_sd              =   0.0000000000000E+00
(PID.TID 0000.0001) %MON seaice_hsnow_del2            =   0.0000000000000E+00
(PID.TID 0000.0001) // =======================================================
(PID.TID 0000.0001) // End MONITOR SEAICE statistics
(PID.TID 0000.0001) // =======================================================
 Computing Diagnostic #    163  SIuice       Counter:       1   Parms: UU      M1      
           Vector  Mate for  SIuice       Diagnostic #    164  SIvice   exists 
 Computing Diagnostic #    164  SIvice       Counter:       1   Parms: VV      M1      
           Vector  Mate for  SIvice       Diagnostic #    163  SIuice   exists 
 Computing Diagnostic #    149  SIheff       Counter:       1   Parms: SM      M1      
 Computing Diagnostic #    146  SIarea       Counter:       1   Parms: SM      M1      
 Computing Diagnostic #    228  SIshear      Counter:       1   Parms: SM      M1      
 Computing Diagnostic #    233  SIcohes      Counter:       1   Parms: SM      M1      
 Computing Diagnostic #    221  SIsig1       Counter:       1   Parms: SM      M1      
 Computing Diagnostic #    222  SIsig2       Counter:       1   Parms: SM      M1      
 Computing Diagnostic #    231  SIdamage     Counter:       1   Parms: SM      M1      
 Computing Diagnostic #    165  SItaux       Counter:       1   Parms: UU      U1      
           Vector  Mate for  SItaux       Diagnostic #    166  SItauy   exists 
 Computing Diagnostic #    166  SItauy       Counter:       1   Parms: VV      U1      
           Vector  Mate for  SItauy       Diagnostic #    165  SItaux   exists 
 Computing Diagnostic #    133  EXFuwind     Counter:       1   Parms: UM      U1      
 Computing Diagnostic #    134  EXFvwind     Counter:       1   Parms: VM      U1      
(PID.TID 0000.0001)  S/R SEAICE_KRYLOV: Picard iterate / total, KRYLOVgamma_lin, initial norm =       1   1101 0.10000E+00 0.10986E+00
(PID.TID 0000.0001)  S/R SEAICE_KRYLOV: Picard iterate / total =      1 /   1101, Nb. of FGMRES iterations =      1
(PID.TID 0000.0001)  S/R SEAICE_KRYLOV: Picard iterate / total, KRYLOVgamma_lin, initial norm =       2   1102 0.50000E-01 0.18500E-03
(PID.TID 0000.0001)  S/R SEAICE_KRYLOV: Picard iterate / total =      2 /   1102, Nb. of FGMRES iterations =      1
(PID.TID 0000.0001)  S/R SEAICE_KRYLOV: Picard iterate / total, KRYLOVgamma_lin, initial norm =       3   1103 0.50000E-01 0.19571E-04
(PID.TID 0000.0001)  S/R SEAICE_KRYLOV: Picard iterate / total =      3 /   1103, Nb. of FGMRES iterations =      1
(PID.TID 0000.0001)  S/R SEAICE_KRYLOV: Picard iterate / total, KRYLOVgamma_lin, initial norm =       4   1104 0.33333E-01 0.13988E-04
(PID.TID 0000.0001)  S/R SEAICE_KRYLOV: Picard iterate / total =      4 /   1104, Nb. of FGMRES iterations =      1
(PID.TID 0000.0001)  S/R SEAICE_KRYLOV: Picard iterate / total, KRYLOVgamma_lin, initial norm =       5   1105 0.33333E-01 0.65794E-05
(PID.TID 0000.0001)  S/R SEAICE_KRYLOV: Picard iterate / total =      5 /   1105, Nb. of FGMRES iterations =      1
(PID.TID 0000.0001)  S/R SEAICE_KRYLOV: Picard iterate / total, KRYLOVgamma_lin, initial norm =       6   1106 0.33333E-01 0.33231E-05
(PID.TID 0000.0001)  S/R SEAICE_KRYLOV: Picard iterate / total =      6 /   1106, Nb. of FGMRES iterations =      1
(PID.TID 0000.0001)  S/R SEAICE_KRYLOV: Picard iterate / total, KRYLOVgamma_lin, initial norm =       7   1107 0.33333E-01 0.16588E-05
(PID.TID 0000.0001)  S/R SEAICE_KRYLOV: Picard iterate / total =      7 /   1107, Nb. of FGMRES iterations =      1
(PID.TID 0000.0001)  S/R SEAICE_KRYLOV: Picard iterate / total, KRYLOVgamma_lin, initial norm =       8   1108 0.25000E-01 0.82962E-06
(PID.TID 0000.0001)  S/R SEAICE_KRYLOV: Picard iterate / total =      8 /   1108, Nb. of FGMRES iterations =      1
(PID.TID 0000.0001)  S/R SEAICE_KRYLOV: Picard iterate / total, KRYLOVgamma_lin, initial norm =       9   1109 0.20000E-01 0.41479E-06
(PID.TID 0000.0001)  S/R SEAICE_KRYLOV: Picard iterate / total =      9 /   1109, Nb. of FGMRES iterations =      1
(PID.TID 0000.0001)  S/R SEAICE_KRYLOV: Picard iterate / total, KRYLOVgamma_lin, initial norm =      10   1110 0.12500E-01 0.20740E-06
(PID.TID 0000.0001)  S/R SEAICE_KRYLOV: Picard iterate / total =     10 /   1110, Nb. of FGMRES iterations =      1
(PID.TID 0000.0001)  S/R SEAICE_KRYLOV: Picard iterate / total, KRYLOVgamma_lin, initial norm =      11   1111 0.12500E-01 0.10370E-06
(PID.TID 0000.0001)  S/R SEAICE_KRYLOV: Picard iterate / total =     11 /   1111, Nb. of FGMRES iterations =      1
(PID.TID 0000.0001)  S/R SEAICE_KRYLOV: Picard iterate / total, KRYLOVgamma_lin, initial norm =      12   1112 0.12500E-01 0.51849E-07
(PID.TID 0000.0001)  S/R SEAICE_KRYLOV: Picard iterate / total =     12 /   1112, Nb. of FGMRES iterations =      1
(PID.TID 0000.0001)  S/R SEAICE_KRYLOV: Picard iterate / total, KRYLOVgamma_lin, initial norm =      13   1113 0.12500E-01 0.25925E-07
(PID.TID 0000.0001)  S/R SEAICE_KRYLOV: Picard iterate / total =     13 /   1113, Nb. of FGMRES iterations =      1
(PID.TID 0000.0001)  S/R SEAICE_KRYLOV: Picard iterate / total, KRYLOVgamma_lin, initial norm =      14   1114 0.12500E-01 0.12962E-07
(PID.TID 0000.0001)  S/R SEAICE_KRYLOV: Picard iterate / total =     14 /   1114, Nb. of FGMRES iterations =      1
(PID.TID 0000.0001)  S/R SEAICE_KRYLOV: Picard iterate / total, KRYLOVgamma_lin, initial norm =      15   1115 0.12500E-01 0.64811E-08
(PID.TID 0000.0001)  S/R SEAICE_KRYLOV: Picard iterate / total =     15 /   1115, Nb. of FGMRES iterations =      1
(PID.TID 0000.0001)  S/R SEAICE_KRYLOV: Picard iterate / total, KRYLOVgamma_lin, initial norm =      16   1116 0.12500E-01 0.32406E-08
(PID.TID 0000.0001)  S/R SEAICE_KRYLOV: Picard iterate / total =     16 /   1116, Nb. of FGMRES iterations =      1
(PID.TID 0000.0001)  S/R SEAICE_KRYLOV: Picard iterate / total, KRYLOVgamma_lin, initial norm =      17   1117 0.12500E-01 0.16203E-08
(PID.TID 0000.0001)  S/R SEAICE_KRYLOV: Picard iterate / total =     17 /   1117, Nb. of FGMRES iterations =      1
(PID.TID 0000.0001)  S/R SEAICE_KRYLOV: Picard iterate / total, KRYLOVgamma_lin, initial norm =      18   1118 0.12500E-01 0.81014E-09
(PID.TID 0000.0001)  S/R SEAICE_KRYLOV: Picard iterate / total =     18 /   1118, Nb. of FGMRES iterations =      1
(PID.TID 0000.0001)  S/R SEAICE_KRYLOV: Picard iterate / total, KRYLOVgamma_lin, initial norm =      19   1119 0.12500E-01 0.40507E-09
(PID.TID 0000.0001)  S/R SEAICE_KRYLOV: Picard iterate / total =     19 /   1119, Nb. of FGMRES iterations =      1
(PID.TID 0000.0001)  S/R SEAICE_KRYLOV: Picard iterate / total, KRYLOVgamma_lin, initial norm =      20   1120 0.12500E-01 0.20254E-09
(PID.TID 0000.0001)  S/R SEAICE_KRYLOV: Picard iterate / total =     20 /   1120, Nb. of FGMRES iterations =      1
(PID.TID 0000.0001)  S/R SEAICE_KRYLOV: Picard iterate / total, KRYLOVgamma_lin, initial norm =      21   1121 0.12500E-01 0.10127E-09
(PID.TID 0000.0001)  S/R SEAICE_KRYLOV: Picard iterate / total =     21 /   1121, Nb. of FGMRES iterations =      1
(PID.TID 0000.0001)  S/R SEAICE_KRYLOV: Picard iterate / total, KRYLOVgamma_lin, initial norm =      22   1122 0.12500E-01 0.50634E-10
(PID.TID 0000.0001)  S/R SEAICE_KRYLOV: Picard iterate / total =     22 /   1122, Nb. of FGMRES iterations =      1
(PID.TID 0000.0001)  S/R SEAICE_KRYLOV: Picard iterate / total, KRYLOVgamma_lin, initial norm =      23   1123 0.12500E-01 0.25317E-10
(PID.TID 0000.0001)  S/R SEAICE_KRYLOV: Picard iterate / total =     23 /   1123, Nb. of FGMRES iterations =      1
(PID.TID 0000.0001)  S/R SEAICE_KRYLOV: Picard iterate / total, KRYLOVgamma_lin, initial norm =      24   1124 0.12500E-01 0.12658E-10
(PID.TID 0000.0001)  S/R SEAICE_KRYLOV: Picard iterate / total =     24 /   1124, Nb. of FGMRES iterations =      1
(PID.TID 0000.0001)  S/R SEAICE_KRYLOV: Picard iterate / total, KRYLOVgamma_lin, initial norm =      25   1125 0.12500E-01 0.63292E-11
(PID.TID 0000.0001)  S/R SEAICE_KRYLOV: Picard iterate / total =     25 /   1125, Nb. of FGMRES iterations =      1
(PID.TID 0000.0001)  S/R SEAICE_KRYLOV: Picard iterate / total, KRYLOVgamma_lin, initial norm =      26   1126 0.12500E-01 0.31646E-11
(PID.TID 0000.0001)  S/R SEAICE_KRYLOV: Picard iterate / total =     26 /   1126, Nb. of FGMRES iterations =      1
(PID.TID 0000.0001)  S/R SEAICE_KRYLOV: Picard iterate / total, KRYLOVgamma_lin, initial norm =      27   1127 0.12500E-01 0.15823E-11
(PID.TID 0000.0001)  S/R SEAICE_KRYLOV: Picard iterate / total =     27 /   1127, Nb. of FGMRES iterations =      1
(PID.TID 0000.0001)  S/R SEAICE_KRYLOV: Picard iterate / total, KRYLOVgamma_lin, initial norm =      28   1128 0.12500E-01 0.79116E-12
(PID.TID 0000.0001)  S/R SEAICE_KRYLOV: Picard iterate / total =     28 /   1128, Nb. of FGMRES iterations =      1
(PID.TID 0000.0001)  S/R SEAICE_KRYLOV: Picard iterate / total, KRYLOVgamma_lin, initial norm =      29   1129 0.12500E-01 0.39558E-12
(PID.TID 0000.0001)  S/R SEAICE_KRYLOV: Picard iterate / total =     29 /   1129, Nb. of FGMRES iterations =      1
(PID.TID 0000.0001)  S/R SEAICE_KRYLOV: Picard iterate / total, KRYLOVgamma_lin, initial norm =      30   1130 0.12500E-01 0.19779E-12
(PID.TID 0000.0001)  S/R SEAICE_KRYLOV: Picard iterate / total =     30 /   1130, Nb. of FGMRES iterations =      1
(PID.TID 0000.0001)  S/R SEAICE_KRYLOV: Picard iterate / total, KRYLOVgamma_lin, final   norm =      31   1131 0.12500E-01 0.98892E-13
(PID.TID 0000.0001)  // =======================================================
(PID.TID 0000.0001)  // Begin KRYLOV statistics
(PID.TID 0000.0001)  // =======================================================
(PID.TID 0000.0001)  %KRYLOV_MON: time step              =         12
(PID.TID 0000.0001)  %KRYLOV_MON: Nb. of time steps      =          1
(PID.TID 0000.0001)  %KRYLOV_MON: Nb. of Picard steps    =         31
(PID.TID 0000.0001)  %KRYLOV_MON: Nb. of Krylov steps    =         30
(PID.TID 0000.0001)  %KRYLOV_MON: Nb. of Picard failures =          0
(PID.TID 0000.0001)  %KRYLOV_MON: Nb. of Krylov failures =          0
(PID.TID 0000.0001)  // =======================================================
(PID.TID 0000.0001)  // End KRYLOV statistics
(PID.TID 0000.0001)  // =======================================================
(PID.TID 0000.0001)  S/R SEAICE_KRYLOV: Total number FGMRES iterations =     30 in timestep         12
(PID.TID 0000.0001) // =======================================================
(PID.TID 0000.0001) // Begin MONITOR dynamic field statistics
(PID.TID 0000.0001) // =======================================================
(PID.TID 0000.0001) %MON time_tsnumber                =                    12
(PID.TID 0000.0001) %MON time_secondsf                =   3.0000000000000E+01
(PID.TID 0000.0001) %MON dynstat_eta_max              =   0.0000000000000E+00
(PID.TID 0000.0001) %MON dynstat_eta_min              =   0.0000000000000E+00
(PID.TID 0000.0001) %MON dynstat_eta_mean             =   0.0000000000000E+00
(PID.TID 0000.0001) %MON dynstat_eta_sd               =   0.0000000000000E+00
(PID.TID 0000.0001) %MON dynstat_eta_del2             =   0.0000000000000E+00
(PID.TID 0000.0001) %MON dynstat_uvel_max             =   9.8437500000000E-03
(PID.TID 0000.0001) %MON dynstat_uvel_min             =  -9.8437500000000E-03
(PID.TID 0000.0001) %MON dynstat_uvel_mean            =   0.0000000000000E+00
(PID.TID 0000.0001) %MON dynstat_uvel_sd              =   5.7727978755972E-03
(PID.TID 0000.0001) %MON dynstat_uvel_del2            =   1.0089048364799E-20
(PID.TID 0000.0001) %MON dynstat_vvel_max             =   9.8437500000000E-03
(PID.TID 0000.0001) %MON dynstat_vvel_min             =  -9.8437500000000E-03
(PID.TID 0000.0001) %MON dynstat_vvel_mean            =   0.0000000000000E+00
(PID.TID 0000.0001) %MON dynstat_vvel_sd              =   5.7727978755972E-03
(PID.TID 0000.0001) %MON dynstat_vvel_del2            =   1.0089048364799E-20
(PID.TID 0000.0001) %MON dynstat_wvel_max             =   1.1914062500000E-05
(PID.TID 0000.0001) %MON dynstat_wvel_min             =  -1.1914062500000E-05
(PID.TID 0000.0001) %MON dynstat_wvel_mean            =   3.4694469519536E-25
(PID.TID 0000.0001) %MON dynstat_wvel_sd              =   1.7200872247780E-06
(PID.TID 0000.0001) %MON dynstat_wvel_del2            =   2.8187489626940E-08
(PID.TID 0000.0001) %MON dynstat_theta_max            =  -1.6200000000000E+00
(PID.TID 0000.0001) %MON dynstat_theta_min            =  -1.6200000000000E+00
(PID.TID 0000.0001) %MON dynstat_theta_mean           =  -1.6200000000000E+00
(PID.TID 0000.0001) %MON dynstat_theta_sd             =   0.0000000000000E+00
(PID.TID 0000.0001) %MON dynstat_theta_del2           =   0.0000000000000E+00
(PID.TID 0000.0001) %MON dynstat_salt_max             =   3.0000000000000E+01
(PID.TID 0000.0001) %MON dynstat_salt_min             =   3.0000000000000E+01
(PID.TID 0000.0001) %MON dynstat_salt_mean            =   3.0000000000000E+01
(PID.TID 0000.0001) %MON dynstat_salt_sd              =   0.0000000000000E+00
(PID.TID 0000.0001) %MON dynstat_salt_del2            =   0.0000000000000E+00
(PID.TID 0000.0001) %MON trAdv_CFL_u_max              =   3.0761718750000E-06
(PID.TID 0000.0001) %MON trAdv_CFL_v_max              =   3.0761718750000E-06
(PID.TID 0000.0001) %MON trAdv_CFL_w_max              =   2.9785156250000E-06
(PID.TID 0000.0001) %MON advcfl_uvel_max              =   3.0761718750000E-06
(PID.TID 0000.0001) %MON advcfl_vvel_max              =   3.0761718750000E-06
(PID.TID 0000.0001) %MON advcfl_wvel_max              =   5.9570312500000E-06
(PID.TID 0000.0001) %MON advcfl_W_hf_max              =   0.0000000000000E+00
(PID.TID 0000.0001) %MON pe_b_mean                    =   0.0000000000000E+00
(PID.TID 0000.0001) %MON ke_max                       =   9.0844726562500E-05
(PID.TID 0000.0001) %MON ke_mean                      =   3.2804489135742E-05
(PID.TID 0000.0001) %MON ke_vol                       =   2.6214400000000E+12
(PID.TID 0000.0001) %MON vort_r_min                   =  -7.8125000000000E-08
(PID.TID 0000.0001) %MON vort_r_max                   =   1.2304687500000E-06
(PID.TID 0000.0001) %MON vort_a_mean                  =   1.4856000000000E-04
(PID.TID 0000.0001) %MON vort_a_sd                    =   1.5312918562496E-06
(PID.TID 0000.0001) %MON vort_p_mean                  =   1.5552375000000E-04
(PID.TID 0000.0001) %MON vort_p_sd                    =   5.5921473110222E-05
(PID.TID 0000.0001) %MON surfExpan_theta_mean         =   0.0000000000000E+00
(PID.TID 0000.0001) %MON surfExpan_salt_mean          =   1.3877787807814E-23
(PID.TID 0000.0001) // =======================================================
(PID.TID 0000.0001) // End MONITOR dynamic field statistics
(PID.TID 0000.0001) // =======================================================
(PID.TID 0000.0001) // =======================================================
(PID.TID 0000.0001) // Begin MONITOR SEAICE statistics
(PID.TID 0000.0001) // =======================================================
(PID.TID 0000.0001) %MON seaice_tsnumber              =                    12
(PID.TID 0000.0001) %MON seaice_time_sec              =   3.0000000000000E+01
(PID.TID 0000.0001) %MON seaice_uice_max              =   2.0629521073331E-02
(PID.TID 0000.0001) %MON seaice_uice_min              =  -2.1035384536380E-02
(PID.TID 0000.0001) %MON seaice_uice_mean             =  -5.0221709620402E-07
(PID.TID 0000.0001) %MON seaice_uice_sd               =   8.8775959276589E-03
(PID.TID 0000.0001) %MON seaice_uice_del2             =   2.5975603615260E-06
(PID.TID 0000.0001) %MON seaice_vice_max              =   2.0140170803589E-02
(PID.TID 0000.0001) %MON seaice_vice_min              =  -2.0398274773486E-02
(PID.TID 0000.0001) %MON seaice_vice_mean             =   2.3437708123132E-06
(PID.TID 0000.0001) %MON seaice_vice_sd               =   8.8354063636034E-03
(PID.TID 0000.0001) %MON seaice_vice_del2             =   2.6025079106898E-06
(PID.TID 0000.0001) %MON seaice_area_max              =   1.0000000000000E+00
(PID.TID 0000.0001) %MON seaice_area_min              =   9.9999453632093E-01
(PID.TID 0000.0001) %MON seaice_area_mean             =   9.9999967615461E-01
(PID.TID 0000.0001) %MON seaice_area_sd               =   7.3437569197541E-07
(PID.TID 0000.0001) %MON seaice_area_del2             =   8.8391420772754E-09
(PID.TID 0000.0001) %MON seaice_heff_max              =   3.0999858699780E-01
(PID.TID 0000.0001) %MON seaice_heff_min              =   2.9006047698291E-01
(PID.TID 0000.0001) %MON seaice_heff_mean             =   3.0067126525963E-01
(PID.TID 0000.0001) %MON seaice_heff_sd               =   5.0069242421576E-03
(PID.TID 0000.0001) %MON seaice_heff_del2             =   1.2853743468188E-05
(PID.TID 0000.0001) %MON seaice_hsnow_max             =   0.0000000000000E+00
(PID.TID 0000.0001) %MON seaice_hsnow_min             =   0.0000000000000E+00
(PID.TID 0000.0001) %MON seaice_hsnow_mean            =   0.0000000000000E+00
(PID.TID 0000.0001) %MON seaice_hsnow_sd              =   0.0000000000000E+00
(PID.TID 0000.0001) %MON seaice_hsnow_del2            =   0.0000000000000E+00
(PID.TID 0000.0001) // =======================================================
(PID.TID 0000.0001) // End MONITOR SEAICE statistics
(PID.TID 0000.0001) // =======================================================
 Computing Diagnostic #    163  SIuice       Counter:       1   Parms: UU      M1      
           Vector  Mate for  SIuice       Diagnostic #    164  SIvice   exists 
 Computing Diagnostic #    164  SIvice       Counter:       1   Parms: VV      M1      
           Vector  Mate for  SIvice       Diagnostic #    163  SIuice   exists 
 Computing Diagnostic #    149  SIheff       Counter:       1   Parms: SM      M1      
 Computing Diagnostic #    146  SIarea       Counter:       1   Parms: SM      M1      
 Computing Diagnostic #    228  SIshear      Counter:       1   Parms: SM      M1      
 Computing Diagnostic #    233  SIcohes      Counter:       1   Parms: SM      M1      
 Computing Diagnostic #    221  SIsig1       Counter:       1   Parms: SM      M1      
 Computing Diagnostic #    222  SIsig2       Counter:       1   Parms: SM      M1      
 Computing Diagnostic #    231  SIdamage     Counter:       1   Parms: SM      M1      
 Computing Diagnostic #    165  SItaux       Counter:       1   Parms: UU      U1      
           Vector  Mate for  SItaux       Diagnostic #    166  SItauy   exists 
 Computing Diagnostic #    166  SItauy       Counter:       1   Parms: VV      U1      
           Vector  Mate for  SItauy       Diagnostic #    165  SItaux   exists 
 Computing Diagnostic #    133  EXFuwind     Counter:       1   Parms: UM      U1      
 Computing Diagnostic #    134  EXFvwind     Counter:       1   Parms: VM      U1      
(PID.TID 0000.0001)  S/R SEAICE_KRYLOV: Picard iterate / total, KRYLOVgamma_lin, initial norm =       1   1201 0.10000E+00 0.10956E+00
(PID.TID 0000.0001)  S/R SEAICE_KRYLOV: Picard iterate / total =      1 /   1201, Nb. of FGMRES iterations =      1
(PID.TID 0000.0001)  S/R SEAICE_KRYLOV: Picard iterate / total, KRYLOVgamma_lin, initial norm =       2   1202 0.50000E-01 0.17301E-03
(PID.TID 0000.0001)  S/R SEAICE_KRYLOV: Picard iterate / total =      2 /   1202, Nb. of FGMRES iterations =      1
(PID.TID 0000.0001)  S/R SEAICE_KRYLOV: Picard iterate / total, KRYLOVgamma_lin, initial norm =       3   1203 0.50000E-01 0.21452E-04
(PID.TID 0000.0001)  S/R SEAICE_KRYLOV: Picard iterate / total =      3 /   1203, Nb. of FGMRES iterations =      1
(PID.TID 0000.0001)  S/R SEAICE_KRYLOV: Picard iterate / total, KRYLOVgamma_lin, initial norm =       4   1204 0.33333E-01 0.14019E-04
(PID.TID 0000.0001)  S/R SEAICE_KRYLOV: Picard iterate / total =      4 /   1204, Nb. of FGMRES iterations =      1
(PID.TID 0000.0001)  S/R SEAICE_KRYLOV: Picard iterate / total, KRYLOVgamma_lin, initial norm =       5   1205 0.33333E-01 0.66795E-05
(PID.TID 0000.0001)  S/R SEAICE_KRYLOV: Picard iterate / total =      5 /   1205, Nb. of FGMRES iterations =      1
(PID.TID 0000.0001)  S/R SEAICE_KRYLOV: Picard iterate / total, KRYLOVgamma_lin, initial norm =       6   1206 0.33333E-01 0.33657E-05
(PID.TID 0000.0001)  S/R SEAICE_KRYLOV: Picard iterate / total =      6 /   1206, Nb. of FGMRES iterations =      1
(PID.TID 0000.0001)  S/R SEAICE_KRYLOV: Picard iterate / total, KRYLOVgamma_lin, initial norm =       7   1207 0.33333E-01 0.16807E-05
(PID.TID 0000.0001)  S/R SEAICE_KRYLOV: Picard iterate / total =      7 /   1207, Nb. of FGMRES iterations =      1
(PID.TID 0000.0001)  S/R SEAICE_KRYLOV: Picard iterate / total, KRYLOVgamma_lin, initial norm =       8   1208 0.25000E-01 0.84054E-06
(PID.TID 0000.0001)  S/R SEAICE_KRYLOV: Picard iterate / total =      8 /   1208, Nb. of FGMRES iterations =      1
(PID.TID 0000.0001)  S/R SEAICE_KRYLOV: Picard iterate / total, KRYLOVgamma_lin, initial norm =       9   1209 0.20000E-01 0.42026E-06
(PID.TID 0000.0001)  S/R SEAICE_KRYLOV: Picard iterate / total =      9 /   1209, Nb. of FGMRES iterations =      1
(PID.TID 0000.0001)  S/R SEAICE_KRYLOV: Picard iterate / total, KRYLOVgamma_lin, initial norm =      10   1210 0.12500E-01 0.21013E-06
(PID.TID 0000.0001)  S/R SEAICE_KRYLOV: Picard iterate / total =     10 /   1210, Nb. of FGMRES iterations =      1
(PID.TID 0000.0001)  S/R SEAICE_KRYLOV: Picard iterate / total, KRYLOVgamma_lin, initial norm =      11   1211 0.12500E-01 0.10506E-06
(PID.TID 0000.0001)  S/R SEAICE_KRYLOV: Picard iterate / total =     11 /   1211, Nb. of FGMRES iterations =      1
(PID.TID 0000.0001)  S/R SEAICE_KRYLOV: Picard iterate / total, KRYLOVgamma_lin, initial norm =      12   1212 0.12500E-01 0.52532E-07
(PID.TID 0000.0001)  S/R SEAICE_KRYLOV: Picard iterate / total =     12 /   1212, Nb. of FGMRES iterations =      1
(PID.TID 0000.0001)  S/R SEAICE_KRYLOV: Picard iterate / total, KRYLOVgamma_lin, initial norm =      13   1213 0.12500E-01 0.26266E-07
(PID.TID 0000.0001)  S/R SEAICE_KRYLOV: Picard iterate / total =     13 /   1213, Nb. of FGMRES iterations =      1
(PID.TID 0000.0001)  S/R SEAICE_KRYLOV: Picard iterate / total, KRYLOVgamma_lin, initial norm =      14   1214 0.12500E-01 0.13133E-07
(PID.TID 0000.0001)  S/R SEAICE_KRYLOV: Picard iterate / total =     14 /   1214, Nb. of FGMRES iterations =      1
(PID.TID 0000.0001)  S/R SEAICE_KRYLOV: Picard iterate / total, KRYLOVgamma_lin, initial norm =      15   1215 0.12500E-01 0.65665E-08
(PID.TID 0000.0001)  S/R SEAICE_KRYLOV: Picard iterate / total =     15 /   1215, Nb. of FGMRES iterations =      1
(PID.TID 0000.0001)  S/R SEAICE_KRYLOV: Picard iterate / total, KRYLOVgamma_lin, initial norm =      16   1216 0.12500E-01 0.32833E-08
(PID.TID 0000.0001)  S/R SEAICE_KRYLOV: Picard iterate / total =     16 /   1216, Nb. of FGMRES iterations =      1
(PID.TID 0000.0001)  S/R SEAICE_KRYLOV: Picard iterate / total, KRYLOVgamma_lin, initial norm =      17   1217 0.12500E-01 0.16416E-08
(PID.TID 0000.0001)  S/R SEAICE_KRYLOV: Picard iterate / total =     17 /   1217, Nb. of FGMRES iterations =      1
(PID.TID 0000.0001)  S/R SEAICE_KRYLOV: Picard iterate / total, KRYLOVgamma_lin, initial norm =      18   1218 0.12500E-01 0.82082E-09
(PID.TID 0000.0001)  S/R SEAICE_KRYLOV: Picard iterate / total =     18 /   1218, Nb. of FGMRES iterations =      1
(PID.TID 0000.0001)  S/R SEAICE_KRYLOV: Picard iterate / total, KRYLOVgamma_lin, initial norm =      19   1219 0.12500E-01 0.41041E-09
(PID.TID 0000.0001)  S/R SEAICE_KRYLOV: Picard iterate / total =     19 /   1219, Nb. of FGMRES iterations =      1
(PID.TID 0000.0001)  S/R SEAICE_KRYLOV: Picard iterate / total, KRYLOVgamma_lin, initial norm =      20   1220 0.12500E-01 0.20520E-09
(PID.TID 0000.0001)  S/R SEAICE_KRYLOV: Picard iterate / total =     20 /   1220, Nb. of FGMRES iterations =      1
(PID.TID 0000.0001)  S/R SEAICE_KRYLOV: Picard iterate / total, KRYLOVgamma_lin, initial norm =      21   1221 0.12500E-01 0.10260E-09
(PID.TID 0000.0001)  S/R SEAICE_KRYLOV: Picard iterate / total =     21 /   1221, Nb. of FGMRES iterations =      1
(PID.TID 0000.0001)  S/R SEAICE_KRYLOV: Picard iterate / total, KRYLOVgamma_lin, initial norm =      22   1222 0.12500E-01 0.51301E-10
(PID.TID 0000.0001)  S/R SEAICE_KRYLOV: Picard iterate / total =     22 /   1222, Nb. of FGMRES iterations =      1
(PID.TID 0000.0001)  S/R SEAICE_KRYLOV: Picard iterate / total, KRYLOVgamma_lin, initial norm =      23   1223 0.12500E-01 0.25651E-10
(PID.TID 0000.0001)  S/R SEAICE_KRYLOV: Picard iterate / total =     23 /   1223, Nb. of FGMRES iterations =      1
(PID.TID 0000.0001)  S/R SEAICE_KRYLOV: Picard iterate / total, KRYLOVgamma_lin, initial norm =      24   1224 0.12500E-01 0.12825E-10
(PID.TID 0000.0001)  S/R SEAICE_KRYLOV: Picard iterate / total =     24 /   1224, Nb. of FGMRES iterations =      1
(PID.TID 0000.0001)  S/R SEAICE_KRYLOV: Picard iterate / total, KRYLOVgamma_lin, initial norm =      25   1225 0.12500E-01 0.64126E-11
(PID.TID 0000.0001)  S/R SEAICE_KRYLOV: Picard iterate / total =     25 /   1225, Nb. of FGMRES iterations =      1
(PID.TID 0000.0001)  S/R SEAICE_KRYLOV: Picard iterate / total, KRYLOVgamma_lin, initial norm =      26   1226 0.12500E-01 0.32063E-11
(PID.TID 0000.0001)  S/R SEAICE_KRYLOV: Picard iterate / total =     26 /   1226, Nb. of FGMRES iterations =      1
(PID.TID 0000.0001)  S/R SEAICE_KRYLOV: Picard iterate / total, KRYLOVgamma_lin, initial norm =      27   1227 0.12500E-01 0.16032E-11
(PID.TID 0000.0001)  S/R SEAICE_KRYLOV: Picard iterate / total =     27 /   1227, Nb. of FGMRES iterations =      1
(PID.TID 0000.0001)  S/R SEAICE_KRYLOV: Picard iterate / total, KRYLOVgamma_lin, initial norm =      28   1228 0.12500E-01 0.80158E-12
(PID.TID 0000.0001)  S/R SEAICE_KRYLOV: Picard iterate / total =     28 /   1228, Nb. of FGMRES iterations =      1
(PID.TID 0000.0001)  S/R SEAICE_KRYLOV: Picard iterate / total, KRYLOVgamma_lin, initial norm =      29   1229 0.12500E-01 0.40078E-12
(PID.TID 0000.0001)  S/R SEAICE_KRYLOV: Picard iterate / total =     29 /   1229, Nb. of FGMRES iterations =      1
(PID.TID 0000.0001)  S/R SEAICE_KRYLOV: Picard iterate / total, KRYLOVgamma_lin, initial norm =      30   1230 0.12500E-01 0.20040E-12
(PID.TID 0000.0001)  S/R SEAICE_KRYLOV: Picard iterate / total =     30 /   1230, Nb. of FGMRES iterations =      1
(PID.TID 0000.0001)  S/R SEAICE_KRYLOV: Picard iterate / total, KRYLOVgamma_lin, final   norm =      31   1231 0.12500E-01 0.10019E-12
(PID.TID 0000.0001)  // =======================================================
(PID.TID 0000.0001)  // Begin KRYLOV statistics
(PID.TID 0000.0001)  // =======================================================
(PID.TID 0000.0001)  %KRYLOV_MON: time step              =         13
(PID.TID 0000.0001)  %KRYLOV_MON: Nb. of time steps      =          1
(PID.TID 0000.0001)  %KRYLOV_MON: Nb. of Picard steps    =         31
(PID.TID 0000.0001)  %KRYLOV_MON: Nb. of Krylov steps    =         30
(PID.TID 0000.0001)  %KRYLOV_MON: Nb. of Picard failures =          0
(PID.TID 0000.0001)  %KRYLOV_MON: Nb. of Krylov failures =          0
(PID.TID 0000.0001)  // =======================================================
(PID.TID 0000.0001)  // End KRYLOV statistics
(PID.TID 0000.0001)  // =======================================================
(PID.TID 0000.0001)  S/R SEAICE_KRYLOV: Total number FGMRES iterations =     30 in timestep         13
(PID.TID 0000.0001) // =======================================================
(PID.TID 0000.0001) // Begin MONITOR dynamic field statistics
(PID.TID 0000.0001) // =======================================================
(PID.TID 0000.0001) %MON time_tsnumber                =                    13
(PID.TID 0000.0001) %MON time_secondsf                =   3.2500000000000E+01
(PID.TID 0000.0001) %MON dynstat_eta_max              =   0.0000000000000E+00
(PID.TID 0000.0001) %MON dynstat_eta_min              =   0.0000000000000E+00
(PID.TID 0000.0001) %MON dynstat_eta_mean             =   0.0000000000000E+00
(PID.TID 0000.0001) %MON dynstat_eta_sd               =   0.0000000000000E+00
(PID.TID 0000.0001) %MON dynstat_eta_del2             =   0.0000000000000E+00
(PID.TID 0000.0001) %MON dynstat_uvel_max             =   9.8437500000000E-03
(PID.TID 0000.0001) %MON dynstat_uvel_min             =  -9.8437500000000E-03
(PID.TID 0000.0001) %MON dynstat_uvel_mean            =   0.0000000000000E+00
(PID.TID 0000.0001) %MON dynstat_uvel_sd              =   5.7727978755972E-03
(PID.TID 0000.0001) %MON dynstat_uvel_del2            =   1.0089048364799E-20
(PID.TID 0000.0001) %MON dynstat_vvel_max             =   9.8437500000000E-03
(PID.TID 0000.0001) %MON dynstat_vvel_min             =  -9.8437500000000E-03
(PID.TID 0000.0001) %MON dynstat_vvel_mean            =   0.0000000000000E+00
(PID.TID 0000.0001) %MON dynstat_vvel_sd              =   5.7727978755972E-03
(PID.TID 0000.0001) %MON dynstat_vvel_del2            =   1.0089048364799E-20
(PID.TID 0000.0001) %MON dynstat_wvel_max             =   1.1914062500000E-05
(PID.TID 0000.0001) %MON dynstat_wvel_min             =  -1.1914062500000E-05
(PID.TID 0000.0001) %MON dynstat_wvel_mean            =   3.4694469519536E-25
(PID.TID 0000.0001) %MON dynstat_wvel_sd              =   1.7200872247780E-06
(PID.TID 0000.0001) %MON dynstat_wvel_del2            =   2.8187489626940E-08
(PID.TID 0000.0001) %MON dynstat_theta_max            =  -1.6200000000000E+00
(PID.TID 0000.0001) %MON dynstat_theta_min            =  -1.6200000000000E+00
(PID.TID 0000.0001) %MON dynstat_theta_mean           =  -1.6200000000000E+00
(PID.TID 0000.0001) %MON dynstat_theta_sd             =   0.0000000000000E+00
(PID.TID 0000.0001) %MON dynstat_theta_del2           =   0.0000000000000E+00
(PID.TID 0000.0001) %MON dynstat_salt_max             =   3.0000000000000E+01
(PID.TID 0000.0001) %MON dynstat_salt_min             =   3.0000000000000E+01
(PID.TID 0000.0001) %MON dynstat_salt_mean            =   3.0000000000000E+01
(PID.TID 0000.0001) %MON dynstat_salt_sd              =   0.0000000000000E+00
(PID.TID 0000.0001) %MON dynstat_salt_del2            =   0.0000000000000E+00
(PID.TID 0000.0001) %MON trAdv_CFL_u_max              =   3.0761718750000E-06
(PID.TID 0000.0001) %MON trAdv_CFL_v_max              =   3.0761718750000E-06
(PID.TID 0000.0001) %MON trAdv_CFL_w_max              =   2.9785156250000E-06
(PID.TID 0000.0001) %MON advcfl_uvel_max              =   3.0761718750000E-06
(PID.TID 0000.0001) %MON advcfl_vvel_max              =   3.0761718750000E-06
(PID.TID 0000.0001) %MON advcfl_wvel_max              =   5.9570312500000E-06
(PID.TID 0000.0001) %MON advcfl_W_hf_max              =   0.0000000000000E+00
(PID.TID 0000.0001) %MON pe_b_mean                    =   0.0000000000000E+00
(PID.TID 0000.0001) %MON ke_max                       =   9.0844726562500E-05
(PID.TID 0000.0001) %MON ke_mean                      =   3.2804489135742E-05
(PID.TID 0000.0001) %MON ke_vol                       =   2.6214400000000E+12
(PID.TID 0000.0001) %MON vort_r_min                   =  -7.8125000000000E-08
(PID.TID 0000.0001) %MON vort_r_max                   =   1.2304687500000E-06
(PID.TID 0000.0001) %MON vort_a_mean                  =   1.4856000000000E-04
(PID.TID 0000.0001) %MON vort_a_sd                    =   1.5312918562496E-06
(PID.TID 0000.0001) %MON vort_p_mean                  =   1.5552375000000E-04
(PID.TID 0000.0001) %MON vort_p_sd                    =   5.5921473110222E-05
(PID.TID 0000.0001) %MON surfExpan_theta_mean         =   0.0000000000000E+00
(PID.TID 0000.0001) %MON surfExpan_salt_mean          =   1.3877787807814E-23
(PID.TID 0000.0001) // =======================================================
(PID.TID 0000.0001) // End MONITOR dynamic field statistics
(PID.TID 0000.0001) // =======================================================
(PID.TID 0000.0001) // =======================================================
(PID.TID 0000.0001) // Begin MONITOR SEAICE statistics
(PID.TID 0000.0001) // =======================================================
(PID.TID 0000.0001) %MON seaice_tsnumber              =                    13
(PID.TID 0000.0001) %MON seaice_time_sec              =   3.2500000000000E+01
(PID.TID 0000.0001) %MON seaice_uice_max              =   2.2327920012772E-02
(PID.TID 0000.0001) %MON seaice_uice_min              =  -2.2754430319319E-02
(PID.TID 0000.0001) %MON seaice_uice_mean             =  -5.5340257776825E-07
(PID.TID 0000.0001) %MON seaice_uice_sd               =   9.6019058222200E-03
(PID.TID 0000.0001) %MON seaice_uice_del2             =   2.7986058596039E-06
(PID.TID 0000.0001) %MON seaice_vice_max              =   2.1792676801887E-02
(PID.TID 0000.0001) %MON seaice_vice_min              =  -2.2076875000239E-02
(PID.TID 0000.0001) %MON seaice_vice_mean             =   2.5433715325280E-06
(PID.TID 0000.0001) %MON seaice_vice_sd               =   9.5564519368639E-03
(PID.TID 0000.0001) %MON seaice_vice_del2             =   2.8040388458203E-06
(PID.TID 0000.0001) %MON seaice_area_max              =   1.0000000000000E+00
(PID.TID 0000.0001) %MON seaice_area_min              =   9.9999360685821E-01
(PID.TID 0000.0001) %MON seaice_area_mean             =   9.9999962294595E-01
(PID.TID 0000.0001) %MON seaice_area_sd               =   8.5883839083520E-07
(PID.TID 0000.0001) %MON seaice_area_del2             =   1.0435546262958E-08
(PID.TID 0000.0001) %MON seaice_heff_max              =   3.0999857277748E-01
(PID.TID 0000.0001) %MON seaice_heff_min              =   2.9006046229999E-01
(PID.TID 0000.0001) %MON seaice_heff_mean             =   3.0067126525963E-01
(PID.TID 0000.0001) %MON seaice_heff_sd               =   5.0069244744618E-03
(PID.TID 0000.0001) %MON seaice_heff_del2             =   1.2853742521041E-05
(PID.TID 0000.0001) %MON seaice_hsnow_max             =   0.0000000000000E+00
(PID.TID 0000.0001) %MON seaice_hsnow_min             =   0.0000000000000E+00
(PID.TID 0000.0001) %MON seaice_hsnow_mean            =   0.0000000000000E+00
(PID.TID 0000.0001) %MON seaice_hsnow_sd              =   0.0000000000000E+00
(PID.TID 0000.0001) %MON seaice_hsnow_del2            =   0.0000000000000E+00
(PID.TID 0000.0001) // =======================================================
(PID.TID 0000.0001) // End MONITOR SEAICE statistics
(PID.TID 0000.0001) // =======================================================
 Computing Diagnostic #    163  SIuice       Counter:       1   Parms: UU      M1      
           Vector  Mate for  SIuice       Diagnostic #    164  SIvice   exists 
 Computing Diagnostic #    164  SIvice       Counter:       1   Parms: VV      M1      
           Vector  Mate for  SIvice       Diagnostic #    163  SIuice   exists 
 Computing Diagnostic #    149  SIheff       Counter:       1   Parms: SM      M1      
 Computing Diagnostic #    146  SIarea       Counter:       1   Parms: SM      M1      
 Computing Diagnostic #    228  SIshear      Counter:       1   Parms: SM      M1      
 Computing Diagnostic #    233  SIcohes      Counter:       1   Parms: SM      M1      
 Computing Diagnostic #    221  SIsig1       Counter:       1   Parms: SM      M1      
 Computing Diagnostic #    222  SIsig2       Counter:       1   Parms: SM      M1      
 Computing Diagnostic #    231  SIdamage     Counter:       1   Parms: SM      M1      
 Computing Diagnostic #    165  SItaux       Counter:       1   Parms: UU      U1      
           Vector  Mate for  SItaux       Diagnostic #    166  SItauy   exists 
 Computing Diagnostic #    166  SItauy       Counter:       1   Parms: VV      U1      
           Vector  Mate for  SItauy       Diagnostic #    165  SItaux   exists 
 Computing Diagnostic #    133  EXFuwind     Counter:       1   Parms: UM      U1      
 Computing Diagnostic #    134  EXFvwind     Counter:       1   Parms: VM      U1      
(PID.TID 0000.0001)  S/R SEAICE_KRYLOV: Picard iterate / total, KRYLOVgamma_lin, initial norm =       1   1301 0.10000E+00 0.10927E+00
(PID.TID 0000.0001)  S/R SEAICE_KRYLOV: Picard iterate / total =      1 /   1301, Nb. of FGMRES iterations =      1
(PID.TID 0000.0001)  S/R SEAICE_KRYLOV: Picard iterate / total, KRYLOVgamma_lin, initial norm =       2   1302 0.50000E-01 0.16377E-03
(PID.TID 0000.0001)  S/R SEAICE_KRYLOV: Picard iterate / total =      2 /   1302, Nb. of FGMRES iterations =      1
(PID.TID 0000.0001)  S/R SEAICE_KRYLOV: Picard iterate / total, KRYLOVgamma_lin, initial norm =       3   1303 0.50000E-01 0.25664E-04
(PID.TID 0000.0001)  S/R SEAICE_KRYLOV: Picard iterate / total =      3 /   1303, Nb. of FGMRES iterations =      1
(PID.TID 0000.0001)  S/R SEAICE_KRYLOV: Picard iterate / total, KRYLOVgamma_lin, initial norm =       4   1304 0.33333E-01 0.15221E-04
(PID.TID 0000.0001)  S/R SEAICE_KRYLOV: Picard iterate / total =      4 /   1304, Nb. of FGMRES iterations =      1
(PID.TID 0000.0001)  S/R SEAICE_KRYLOV: Picard iterate / total, KRYLOVgamma_lin, initial norm =       5   1305 0.33333E-01 0.73683E-05
(PID.TID 0000.0001)  S/R SEAICE_KRYLOV: Picard iterate / total =      5 /   1305, Nb. of FGMRES iterations =      1
(PID.TID 0000.0001)  S/R SEAICE_KRYLOV: Picard iterate / total, KRYLOVgamma_lin, initial norm =       6   1306 0.33333E-01 0.37027E-05
(PID.TID 0000.0001)  S/R SEAICE_KRYLOV: Picard iterate / total =      6 /   1306, Nb. of FGMRES iterations =      1
(PID.TID 0000.0001)  S/R SEAICE_KRYLOV: Picard iterate / total, KRYLOVgamma_lin, initial norm =       7   1307 0.33333E-01 0.18499E-05
(PID.TID 0000.0001)  S/R SEAICE_KRYLOV: Picard iterate / total =      7 /   1307, Nb. of FGMRES iterations =      1
(PID.TID 0000.0001)  S/R SEAICE_KRYLOV: Picard iterate / total, KRYLOVgamma_lin, initial norm =       8   1308 0.25000E-01 0.92505E-06
(PID.TID 0000.0001)  S/R SEAICE_KRYLOV: Picard iterate / total =      8 /   1308, Nb. of FGMRES iterations =      1
(PID.TID 0000.0001)  S/R SEAICE_KRYLOV: Picard iterate / total, KRYLOVgamma_lin, initial norm =       9   1309 0.20000E-01 0.46251E-06
(PID.TID 0000.0001)  S/R SEAICE_KRYLOV: Picard iterate / total =      9 /   1309, Nb. of FGMRES iterations =      1
(PID.TID 0000.0001)  S/R SEAICE_KRYLOV: Picard iterate / total, KRYLOVgamma_lin, initial norm =      10   1310 0.12500E-01 0.23126E-06
(PID.TID 0000.0001)  S/R SEAICE_KRYLOV: Picard iterate / total =     10 /   1310, Nb. of FGMRES iterations =      1
(PID.TID 0000.0001)  S/R SEAICE_KRYLOV: Picard iterate / total, KRYLOVgamma_lin, initial norm =      11   1311 0.12500E-01 0.11563E-06
(PID.TID 0000.0001)  S/R SEAICE_KRYLOV: Picard iterate / total =     11 /   1311, Nb. of FGMRES iterations =      1
(PID.TID 0000.0001)  S/R SEAICE_KRYLOV: Picard iterate / total, KRYLOVgamma_lin, initial norm =      12   1312 0.12500E-01 0.57814E-07
(PID.TID 0000.0001)  S/R SEAICE_KRYLOV: Picard iterate / total =     12 /   1312, Nb. of FGMRES iterations =      1
(PID.TID 0000.0001)  S/R SEAICE_KRYLOV: Picard iterate / total, KRYLOVgamma_lin, initial norm =      13   1313 0.12500E-01 0.28907E-07
(PID.TID 0000.0001)  S/R SEAICE_KRYLOV: Picard iterate / total =     13 /   1313, Nb. of FGMRES iterations =      1
(PID.TID 0000.0001)  S/R SEAICE_KRYLOV: Picard iterate / total, KRYLOVgamma_lin, initial norm =      14   1314 0.12500E-01 0.14454E-07
(PID.TID 0000.0001)  S/R SEAICE_KRYLOV: Picard iterate / total =     14 /   1314, Nb. of FGMRES iterations =      1
(PID.TID 0000.0001)  S/R SEAICE_KRYLOV: Picard iterate / total, KRYLOVgamma_lin, initial norm =      15   1315 0.12500E-01 0.72268E-08
(PID.TID 0000.0001)  S/R SEAICE_KRYLOV: Picard iterate / total =     15 /   1315, Nb. of FGMRES iterations =      1
(PID.TID 0000.0001)  S/R SEAICE_KRYLOV: Picard iterate / total, KRYLOVgamma_lin, initial norm =      16   1316 0.12500E-01 0.36134E-08
(PID.TID 0000.0001)  S/R SEAICE_KRYLOV: Picard iterate / total =     16 /   1316, Nb. of FGMRES iterations =      1
(PID.TID 0000.0001)  S/R SEAICE_KRYLOV: Picard iterate / total, KRYLOVgamma_lin, initial norm =      17   1317 0.12500E-01 0.18067E-08
(PID.TID 0000.0001)  S/R SEAICE_KRYLOV: Picard iterate / total =     17 /   1317, Nb. of FGMRES iterations =      1
(PID.TID 0000.0001)  S/R SEAICE_KRYLOV: Picard iterate / total, KRYLOVgamma_lin, initial norm =      18   1318 0.12500E-01 0.90335E-09
(PID.TID 0000.0001)  S/R SEAICE_KRYLOV: Picard iterate / total =     18 /   1318, Nb. of FGMRES iterations =      1
(PID.TID 0000.0001)  S/R SEAICE_KRYLOV: Picard iterate / total, KRYLOVgamma_lin, initial norm =      19   1319 0.12500E-01 0.45167E-09
(PID.TID 0000.0001)  S/R SEAICE_KRYLOV: Picard iterate / total =     19 /   1319, Nb. of FGMRES iterations =      1
(PID.TID 0000.0001)  S/R SEAICE_KRYLOV: Picard iterate / total, KRYLOVgamma_lin, initial norm =      20   1320 0.12500E-01 0.22584E-09
(PID.TID 0000.0001)  S/R SEAICE_KRYLOV: Picard iterate / total =     20 /   1320, Nb. of FGMRES iterations =      1
(PID.TID 0000.0001)  S/R SEAICE_KRYLOV: Picard iterate / total, KRYLOVgamma_lin, initial norm =      21   1321 0.12500E-01 0.11292E-09
(PID.TID 0000.0001)  S/R SEAICE_KRYLOV: Picard iterate / total =     21 /   1321, Nb. of FGMRES iterations =      1
(PID.TID 0000.0001)  S/R SEAICE_KRYLOV: Picard iterate / total, KRYLOVgamma_lin, initial norm =      22   1322 0.12500E-01 0.56459E-10
(PID.TID 0000.0001)  S/R SEAICE_KRYLOV: Picard iterate / total =     22 /   1322, Nb. of FGMRES iterations =      1
(PID.TID 0000.0001)  S/R SEAICE_KRYLOV: Picard iterate / total, KRYLOVgamma_lin, initial norm =      23   1323 0.12500E-01 0.28230E-10
(PID.TID 0000.0001)  S/R SEAICE_KRYLOV: Picard iterate / total =     23 /   1323, Nb. of FGMRES iterations =      1
(PID.TID 0000.0001)  S/R SEAICE_KRYLOV: Picard iterate / total, KRYLOVgamma_lin, initial norm =      24   1324 0.12500E-01 0.14115E-10
(PID.TID 0000.0001)  S/R SEAICE_KRYLOV: Picard iterate / total =     24 /   1324, Nb. of FGMRES iterations =      1
(PID.TID 0000.0001)  S/R SEAICE_KRYLOV: Picard iterate / total, KRYLOVgamma_lin, initial norm =      25   1325 0.12500E-01 0.70574E-11
(PID.TID 0000.0001)  S/R SEAICE_KRYLOV: Picard iterate / total =     25 /   1325, Nb. of FGMRES iterations =      1
(PID.TID 0000.0001)  S/R SEAICE_KRYLOV: Picard iterate / total, KRYLOVgamma_lin, initial norm =      26   1326 0.12500E-01 0.35287E-11
(PID.TID 0000.0001)  S/R SEAICE_KRYLOV: Picard iterate / total =     26 /   1326, Nb. of FGMRES iterations =      1
(PID.TID 0000.0001)  S/R SEAICE_KRYLOV: Picard iterate / total, KRYLOVgamma_lin, initial norm =      27   1327 0.12500E-01 0.17644E-11
(PID.TID 0000.0001)  S/R SEAICE_KRYLOV: Picard iterate / total =     27 /   1327, Nb. of FGMRES iterations =      1
(PID.TID 0000.0001)  S/R SEAICE_KRYLOV: Picard iterate / total, KRYLOVgamma_lin, initial norm =      28   1328 0.12500E-01 0.88218E-12
(PID.TID 0000.0001)  S/R SEAICE_KRYLOV: Picard iterate / total =     28 /   1328, Nb. of FGMRES iterations =      1
(PID.TID 0000.0001)  S/R SEAICE_KRYLOV: Picard iterate / total, KRYLOVgamma_lin, initial norm =      29   1329 0.12500E-01 0.44109E-12
(PID.TID 0000.0001)  S/R SEAICE_KRYLOV: Picard iterate / total =     29 /   1329, Nb. of FGMRES iterations =      1
(PID.TID 0000.0001)  S/R SEAICE_KRYLOV: Picard iterate / total, KRYLOVgamma_lin, initial norm =      30   1330 0.12500E-01 0.22054E-12
(PID.TID 0000.0001)  S/R SEAICE_KRYLOV: Picard iterate / total =     30 /   1330, Nb. of FGMRES iterations =      1
(PID.TID 0000.0001)  S/R SEAICE_KRYLOV: Picard iterate / total, KRYLOVgamma_lin, initial norm =      31   1331 0.12500E-01 0.11027E-12
(PID.TID 0000.0001)  S/R SEAICE_KRYLOV: Picard iterate / total =     31 /   1331, Nb. of FGMRES iterations =      1
(PID.TID 0000.0001)  S/R SEAICE_KRYLOV: Picard iterate / total, KRYLOVgamma_lin, final   norm =      32   1332 0.12500E-01 0.55136E-13
(PID.TID 0000.0001)  // =======================================================
(PID.TID 0000.0001)  // Begin KRYLOV statistics
(PID.TID 0000.0001)  // =======================================================
(PID.TID 0000.0001)  %KRYLOV_MON: time step              =         14
(PID.TID 0000.0001)  %KRYLOV_MON: Nb. of time steps      =          1
(PID.TID 0000.0001)  %KRYLOV_MON: Nb. of Picard steps    =         32
(PID.TID 0000.0001)  %KRYLOV_MON: Nb. of Krylov steps    =         31
(PID.TID 0000.0001)  %KRYLOV_MON: Nb. of Picard failures =          0
(PID.TID 0000.0001)  %KRYLOV_MON: Nb. of Krylov failures =          0
(PID.TID 0000.0001)  // =======================================================
(PID.TID 0000.0001)  // End KRYLOV statistics
(PID.TID 0000.0001)  // =======================================================
(PID.TID 0000.0001)  S/R SEAICE_KRYLOV: Total number FGMRES iterations =     31 in timestep         14
(PID.TID 0000.0001) // =======================================================
(PID.TID 0000.0001) // Begin MONITOR dynamic field statistics
(PID.TID 0000.0001) // =======================================================
(PID.TID 0000.0001) %MON time_tsnumber                =                    14
(PID.TID 0000.0001) %MON time_secondsf                =   3.5000000000000E+01
(PID.TID 0000.0001) %MON dynstat_eta_max              =   0.0000000000000E+00
(PID.TID 0000.0001) %MON dynstat_eta_min              =   0.0000000000000E+00
(PID.TID 0000.0001) %MON dynstat_eta_mean             =   0.0000000000000E+00
(PID.TID 0000.0001) %MON dynstat_eta_sd               =   0.0000000000000E+00
(PID.TID 0000.0001) %MON dynstat_eta_del2             =   0.0000000000000E+00
(PID.TID 0000.0001) %MON dynstat_uvel_max             =   9.8437500000000E-03
(PID.TID 0000.0001) %MON dynstat_uvel_min             =  -9.8437500000000E-03
(PID.TID 0000.0001) %MON dynstat_uvel_mean            =   0.0000000000000E+00
(PID.TID 0000.0001) %MON dynstat_uvel_sd              =   5.7727978755972E-03
(PID.TID 0000.0001) %MON dynstat_uvel_del2            =   1.0089048364799E-20
(PID.TID 0000.0001) %MON dynstat_vvel_max             =   9.8437500000000E-03
(PID.TID 0000.0001) %MON dynstat_vvel_min             =  -9.8437500000000E-03
(PID.TID 0000.0001) %MON dynstat_vvel_mean            =   0.0000000000000E+00
(PID.TID 0000.0001) %MON dynstat_vvel_sd              =   5.7727978755972E-03
(PID.TID 0000.0001) %MON dynstat_vvel_del2            =   1.0089048364799E-20
(PID.TID 0000.0001) %MON dynstat_wvel_max             =   1.1914062500000E-05
(PID.TID 0000.0001) %MON dynstat_wvel_min             =  -1.1914062500000E-05
(PID.TID 0000.0001) %MON dynstat_wvel_mean            =   3.4694469519536E-25
(PID.TID 0000.0001) %MON dynstat_wvel_sd              =   1.7200872247780E-06
(PID.TID 0000.0001) %MON dynstat_wvel_del2            =   2.8187489626940E-08
(PID.TID 0000.0001) %MON dynstat_theta_max            =  -1.6200000000000E+00
(PID.TID 0000.0001) %MON dynstat_theta_min            =  -1.6200000000000E+00
(PID.TID 0000.0001) %MON dynstat_theta_mean           =  -1.6200000000000E+00
(PID.TID 0000.0001) %MON dynstat_theta_sd             =   0.0000000000000E+00
(PID.TID 0000.0001) %MON dynstat_theta_del2           =   0.0000000000000E+00
(PID.TID 0000.0001) %MON dynstat_salt_max             =   3.0000000000000E+01
(PID.TID 0000.0001) %MON dynstat_salt_min             =   3.0000000000000E+01
(PID.TID 0000.0001) %MON dynstat_salt_mean            =   3.0000000000000E+01
(PID.TID 0000.0001) %MON dynstat_salt_sd              =   0.0000000000000E+00
(PID.TID 0000.0001) %MON dynstat_salt_del2            =   0.0000000000000E+00
(PID.TID 0000.0001) %MON trAdv_CFL_u_max              =   3.0761718750000E-06
(PID.TID 0000.0001) %MON trAdv_CFL_v_max              =   3.0761718750000E-06
(PID.TID 0000.0001) %MON trAdv_CFL_w_max              =   2.9785156250000E-06
(PID.TID 0000.0001) %MON advcfl_uvel_max              =   3.0761718750000E-06
(PID.TID 0000.0001) %MON advcfl_vvel_max              =   3.0761718750000E-06
(PID.TID 0000.0001) %MON advcfl_wvel_max              =   5.9570312500000E-06
(PID.TID 0000.0001) %MON advcfl_W_hf_max              =   0.0000000000000E+00
(PID.TID 0000.0001) %MON pe_b_mean                    =   0.0000000000000E+00
(PID.TID 0000.0001) %MON ke_max                       =   9.0844726562500E-05
(PID.TID 0000.0001) %MON ke_mean                      =   3.2804489135742E-05
(PID.TID 0000.0001) %MON ke_vol                       =   2.6214400000000E+12
(PID.TID 0000.0001) %MON vort_r_min                   =  -7.8125000000000E-08
(PID.TID 0000.0001) %MON vort_r_max                   =   1.2304687500000E-06
(PID.TID 0000.0001) %MON vort_a_mean                  =   1.4856000000000E-04
(PID.TID 0000.0001) %MON vort_a_sd                    =   1.5312918562496E-06
(PID.TID 0000.0001) %MON vort_p_mean                  =   1.5552375000000E-04
(PID.TID 0000.0001) %MON vort_p_sd                    =   5.5921473110222E-05
(PID.TID 0000.0001) %MON surfExpan_theta_mean         =   0.0000000000000E+00
(PID.TID 0000.0001) %MON surfExpan_salt_mean          =   1.3877787807814E-23
(PID.TID 0000.0001) // =======================================================
(PID.TID 0000.0001) // End MONITOR dynamic field statistics
(PID.TID 0000.0001) // =======================================================
(PID.TID 0000.0001) // =======================================================
(PID.TID 0000.0001) // Begin MONITOR SEAICE statistics
(PID.TID 0000.0001) // =======================================================
(PID.TID 0000.0001) %MON seaice_tsnumber              =                    14
(PID.TID 0000.0001) %MON seaice_time_sec              =   3.5000000000000E+01
(PID.TID 0000.0001) %MON seaice_uice_max              =   2.4022643153485E-02
(PID.TID 0000.0001) %MON seaice_uice_min              =  -2.4469954968255E-02
(PID.TID 0000.0001) %MON seaice_uice_mean             =  -6.0592125328542E-07
(PID.TID 0000.0001) %MON seaice_uice_sd               =   1.0324215813718E-02
(PID.TID 0000.0001) %MON seaice_uice_del2             =   3.0009961198766E-06
(PID.TID 0000.0001) %MON seaice_vice_max              =   2.3441902278465E-02
(PID.TID 0000.0001) %MON seaice_vice_min              =  -2.3751471800517E-02
(PID.TID 0000.0001) %MON seaice_vice_mean             =   2.7401948403731E-06
(PID.TID 0000.0001) %MON seaice_vice_sd               =   1.0275524748709E-02
(PID.TID 0000.0001) %MON seaice_vice_del2             =   3.0063364106517E-06
(PID.TID 0000.0001) %MON seaice_area_max              =   1.0000000000000E+00
(PID.TID 0000.0001) %MON seaice_area_min              =   9.9999260278458E-01
(PID.TID 0000.0001) %MON seaice_area_mean             =   9.9999956575706E-01
(PID.TID 0000.0001) %MON seaice_area_sd               =   9.9334159524650E-07
(PID.TID 0000.0001) %MON seaice_area_del2             =   1.2163427007482E-08
(PID.TID 0000.0001) %MON seaice_heff_max              =   3.0999855747218E-01
(PID.TID 0000.0001) %MON seaice_heff_min              =   2.9006044651182E-01
(PID.TID 0000.0001) %MON seaice_heff_mean             =   3.0067126525963E-01
(PID.TID 0000.0001) %MON seaice_heff_sd               =   5.0069247014122E-03
(PID.TID 0000.0001) %MON seaice_heff_del2             =   1.2853741515545E-05
(PID.TID 0000.0001) %MON seaice_hsnow_max             =   0.0000000000000E+00
(PID.TID 0000.0001) %MON seaice_hsnow_min             =   0.0000000000000E+00
(PID.TID 0000.0001) %MON seaice_hsnow_mean            =   0.0000000000000E+00
(PID.TID 0000.0001) %MON seaice_hsnow_sd              =   0.0000000000000E+00
(PID.TID 0000.0001) %MON seaice_hsnow_del2            =   0.0000000000000E+00
(PID.TID 0000.0001) // =======================================================
(PID.TID 0000.0001) // End MONITOR SEAICE statistics
(PID.TID 0000.0001) // =======================================================
 Computing Diagnostic #    163  SIuice       Counter:       1   Parms: UU      M1      
           Vector  Mate for  SIuice       Diagnostic #    164  SIvice   exists 
 Computing Diagnostic #    164  SIvice       Counter:       1   Parms: VV      M1      
           Vector  Mate for  SIvice       Diagnostic #    163  SIuice   exists 
 Computing Diagnostic #    149  SIheff       Counter:       1   Parms: SM      M1      
 Computing Diagnostic #    146  SIarea       Counter:       1   Parms: SM      M1      
 Computing Diagnostic #    228  SIshear      Counter:       1   Parms: SM      M1      
 Computing Diagnostic #    233  SIcohes      Counter:       1   Parms: SM      M1      
 Computing Diagnostic #    221  SIsig1       Counter:       1   Parms: SM      M1      
 Computing Diagnostic #    222  SIsig2       Counter:       1   Parms: SM      M1      
 Computing Diagnostic #    231  SIdamage     Counter:       1   Parms: SM      M1      
 Computing Diagnostic #    165  SItaux       Counter:       1   Parms: UU      U1      
           Vector  Mate for  SItaux       Diagnostic #    166  SItauy   exists 
 Computing Diagnostic #    166  SItauy       Counter:       1   Parms: VV      U1      
           Vector  Mate for  SItauy       Diagnostic #    165  SItaux   exists 
 Computing Diagnostic #    133  EXFuwind     Counter:       1   Parms: UM      U1      
 Computing Diagnostic #    134  EXFvwind     Counter:       1   Parms: VM      U1      
(PID.TID 0000.0001)  S/R SEAICE_KRYLOV: Picard iterate / total, KRYLOVgamma_lin, initial norm =       1   1401 0.10000E+00 0.10897E+00
(PID.TID 0000.0001)  S/R SEAICE_KRYLOV: Picard iterate / total =      1 /   1401, Nb. of FGMRES iterations =      1
(PID.TID 0000.0001)  S/R SEAICE_KRYLOV: Picard iterate / total, KRYLOVgamma_lin, initial norm =       2   1402 0.50000E-01 0.15424E-03
(PID.TID 0000.0001)  S/R SEAICE_KRYLOV: Picard iterate / total =      2 /   1402, Nb. of FGMRES iterations =      1
(PID.TID 0000.0001)  S/R SEAICE_KRYLOV: Picard iterate / total, KRYLOVgamma_lin, initial norm =       3   1403 0.50000E-01 0.27952E-04
(PID.TID 0000.0001)  S/R SEAICE_KRYLOV: Picard iterate / total =      3 /   1403, Nb. of FGMRES iterations =      1
(PID.TID 0000.0001)  S/R SEAICE_KRYLOV: Picard iterate / total, KRYLOVgamma_lin, initial norm =       4   1404 0.33333E-01 0.15796E-04
(PID.TID 0000.0001)  S/R SEAICE_KRYLOV: Picard iterate / total =      4 /   1404, Nb. of FGMRES iterations =      1
(PID.TID 0000.0001)  S/R SEAICE_KRYLOV: Picard iterate / total, KRYLOVgamma_lin, initial norm =       5   1405 0.33333E-01 0.77137E-05
(PID.TID 0000.0001)  S/R SEAICE_KRYLOV: Picard iterate / total =      5 /   1405, Nb. of FGMRES iterations =      1
(PID.TID 0000.0001)  S/R SEAICE_KRYLOV: Picard iterate / total, KRYLOVgamma_lin, initial norm =       6   1406 0.33333E-01 0.38707E-05
(PID.TID 0000.0001)  S/R SEAICE_KRYLOV: Picard iterate / total =      6 /   1406, Nb. of FGMRES iterations =      1
(PID.TID 0000.0001)  S/R SEAICE_KRYLOV: Picard iterate / total, KRYLOVgamma_lin, initial norm =       7   1407 0.33333E-01 0.19342E-05
(PID.TID 0000.0001)  S/R SEAICE_KRYLOV: Picard iterate / total =      7 /   1407, Nb. of FGMRES iterations =      1
(PID.TID 0000.0001)  S/R SEAICE_KRYLOV: Picard iterate / total, KRYLOVgamma_lin, initial norm =       8   1408 0.25000E-01 0.96721E-06
(PID.TID 0000.0001)  S/R SEAICE_KRYLOV: Picard iterate / total =      8 /   1408, Nb. of FGMRES iterations =      1
(PID.TID 0000.0001)  S/R SEAICE_KRYLOV: Picard iterate / total, KRYLOVgamma_lin, initial norm =       9   1409 0.20000E-01 0.48360E-06
(PID.TID 0000.0001)  S/R SEAICE_KRYLOV: Picard iterate / total =      9 /   1409, Nb. of FGMRES iterations =      1
(PID.TID 0000.0001)  S/R SEAICE_KRYLOV: Picard iterate / total, KRYLOVgamma_lin, initial norm =      10   1410 0.12500E-01 0.24180E-06
(PID.TID 0000.0001)  S/R SEAICE_KRYLOV: Picard iterate / total =     10 /   1410, Nb. of FGMRES iterations =      1
(PID.TID 0000.0001)  S/R SEAICE_KRYLOV: Picard iterate / total, KRYLOVgamma_lin, initial norm =      11   1411 0.12500E-01 0.12090E-06
(PID.TID 0000.0001)  S/R SEAICE_KRYLOV: Picard iterate / total =     11 /   1411, Nb. of FGMRES iterations =      1
(PID.TID 0000.0001)  S/R SEAICE_KRYLOV: Picard iterate / total, KRYLOVgamma_lin, initial norm =      12   1412 0.12500E-01 0.60450E-07
(PID.TID 0000.0001)  S/R SEAICE_KRYLOV: Picard iterate / total =     12 /   1412, Nb. of FGMRES iterations =      1
(PID.TID 0000.0001)  S/R SEAICE_KRYLOV: Picard iterate / total, KRYLOVgamma_lin, initial norm =      13   1413 0.12500E-01 0.30225E-07
(PID.TID 0000.0001)  S/R SEAICE_KRYLOV: Picard iterate / total =     13 /   1413, Nb. of FGMRES iterations =      1
(PID.TID 0000.0001)  S/R SEAICE_KRYLOV: Picard iterate / total, KRYLOVgamma_lin, initial norm =      14   1414 0.12500E-01 0.15112E-07
(PID.TID 0000.0001)  S/R SEAICE_KRYLOV: Picard iterate / total =     14 /   1414, Nb. of FGMRES iterations =      1
(PID.TID 0000.0001)  S/R SEAICE_KRYLOV: Picard iterate / total, KRYLOVgamma_lin, initial norm =      15   1415 0.12500E-01 0.75562E-08
(PID.TID 0000.0001)  S/R SEAICE_KRYLOV: Picard iterate / total =     15 /   1415, Nb. of FGMRES iterations =      1
(PID.TID 0000.0001)  S/R SEAICE_KRYLOV: Picard iterate / total, KRYLOVgamma_lin, initial norm =      16   1416 0.12500E-01 0.37781E-08
(PID.TID 0000.0001)  S/R SEAICE_KRYLOV: Picard iterate / total =     16 /   1416, Nb. of FGMRES iterations =      1
(PID.TID 0000.0001)  S/R SEAICE_KRYLOV: Picard iterate / total, KRYLOVgamma_lin, initial norm =      17   1417 0.12500E-01 0.18891E-08
(PID.TID 0000.0001)  S/R SEAICE_KRYLOV: Picard iterate / total =     17 /   1417, Nb. of FGMRES iterations =      1
(PID.TID 0000.0001)  S/R SEAICE_KRYLOV: Picard iterate / total, KRYLOVgamma_lin, initial norm =      18   1418 0.12500E-01 0.94453E-09
(PID.TID 0000.0001)  S/R SEAICE_KRYLOV: Picard iterate / total =     18 /   1418, Nb. of FGMRES iterations =      1
(PID.TID 0000.0001)  S/R SEAICE_KRYLOV: Picard iterate / total, KRYLOVgamma_lin, initial norm =      19   1419 0.12500E-01 0.47226E-09
(PID.TID 0000.0001)  S/R SEAICE_KRYLOV: Picard iterate / total =     19 /   1419, Nb. of FGMRES iterations =      1
(PID.TID 0000.0001)  S/R SEAICE_KRYLOV: Picard iterate / total, KRYLOVgamma_lin, initial norm =      20   1420 0.12500E-01 0.23613E-09
(PID.TID 0000.0001)  S/R SEAICE_KRYLOV: Picard iterate / total =     20 /   1420, Nb. of FGMRES iterations =      1
(PID.TID 0000.0001)  S/R SEAICE_KRYLOV: Picard iterate / total, KRYLOVgamma_lin, initial norm =      21   1421 0.12500E-01 0.11807E-09
(PID.TID 0000.0001)  S/R SEAICE_KRYLOV: Picard iterate / total =     21 /   1421, Nb. of FGMRES iterations =      1
(PID.TID 0000.0001)  S/R SEAICE_KRYLOV: Picard iterate / total, KRYLOVgamma_lin, initial norm =      22   1422 0.12500E-01 0.59033E-10
(PID.TID 0000.0001)  S/R SEAICE_KRYLOV: Picard iterate / total =     22 /   1422, Nb. of FGMRES iterations =      1
(PID.TID 0000.0001)  S/R SEAICE_KRYLOV: Picard iterate / total, KRYLOVgamma_lin, initial norm =      23   1423 0.12500E-01 0.29517E-10
(PID.TID 0000.0001)  S/R SEAICE_KRYLOV: Picard iterate / total =     23 /   1423, Nb. of FGMRES iterations =      1
(PID.TID 0000.0001)  S/R SEAICE_KRYLOV: Picard iterate / total, KRYLOVgamma_lin, initial norm =      24   1424 0.12500E-01 0.14758E-10
(PID.TID 0000.0001)  S/R SEAICE_KRYLOV: Picard iterate / total =     24 /   1424, Nb. of FGMRES iterations =      1
(PID.TID 0000.0001)  S/R SEAICE_KRYLOV: Picard iterate / total, KRYLOVgamma_lin, initial norm =      25   1425 0.12500E-01 0.73791E-11
(PID.TID 0000.0001)  S/R SEAICE_KRYLOV: Picard iterate / total =     25 /   1425, Nb. of FGMRES iterations =      1
(PID.TID 0000.0001)  S/R SEAICE_KRYLOV: Picard iterate / total, KRYLOVgamma_lin, initial norm =      26   1426 0.12500E-01 0.36896E-11
(PID.TID 0000.0001)  S/R SEAICE_KRYLOV: Picard iterate / total =     26 /   1426, Nb. of FGMRES iterations =      1
(PID.TID 0000.0001)  S/R SEAICE_KRYLOV: Picard iterate / total, KRYLOVgamma_lin, initial norm =      27   1427 0.12500E-01 0.18448E-11
(PID.TID 0000.0001)  S/R SEAICE_KRYLOV: Picard iterate / total =     27 /   1427, Nb. of FGMRES iterations =      1
(PID.TID 0000.0001)  S/R SEAICE_KRYLOV: Picard iterate / total, KRYLOVgamma_lin, initial norm =      28   1428 0.12500E-01 0.92240E-12
(PID.TID 0000.0001)  S/R SEAICE_KRYLOV: Picard iterate / total =     28 /   1428, Nb. of FGMRES iterations =      1
(PID.TID 0000.0001)  S/R SEAICE_KRYLOV: Picard iterate / total, KRYLOVgamma_lin, initial norm =      29   1429 0.12500E-01 0.46119E-12
(PID.TID 0000.0001)  S/R SEAICE_KRYLOV: Picard iterate / total =     29 /   1429, Nb. of FGMRES iterations =      1
(PID.TID 0000.0001)  S/R SEAICE_KRYLOV: Picard iterate / total, KRYLOVgamma_lin, initial norm =      30   1430 0.12500E-01 0.23060E-12
(PID.TID 0000.0001)  S/R SEAICE_KRYLOV: Picard iterate / total =     30 /   1430, Nb. of FGMRES iterations =      1
(PID.TID 0000.0001)  S/R SEAICE_KRYLOV: Picard iterate / total, KRYLOVgamma_lin, initial norm =      31   1431 0.12500E-01 0.11530E-12
(PID.TID 0000.0001)  S/R SEAICE_KRYLOV: Picard iterate / total =     31 /   1431, Nb. of FGMRES iterations =      1
(PID.TID 0000.0001)  S/R SEAICE_KRYLOV: Picard iterate / total, KRYLOVgamma_lin, final   norm =      32   1432 0.12500E-01 0.57651E-13
(PID.TID 0000.0001)  // =======================================================
(PID.TID 0000.0001)  // Begin KRYLOV statistics
(PID.TID 0000.0001)  // =======================================================
(PID.TID 0000.0001)  %KRYLOV_MON: time step              =         15
(PID.TID 0000.0001)  %KRYLOV_MON: Nb. of time steps      =          1
(PID.TID 0000.0001)  %KRYLOV_MON: Nb. of Picard steps    =         32
(PID.TID 0000.0001)  %KRYLOV_MON: Nb. of Krylov steps    =         31
(PID.TID 0000.0001)  %KRYLOV_MON: Nb. of Picard failures =          0
(PID.TID 0000.0001)  %KRYLOV_MON: Nb. of Krylov failures =          0
(PID.TID 0000.0001)  // =======================================================
(PID.TID 0000.0001)  // End KRYLOV statistics
(PID.TID 0000.0001)  // =======================================================
(PID.TID 0000.0001)  S/R SEAICE_KRYLOV: Total number FGMRES iterations =     31 in timestep         15
(PID.TID 0000.0001) // =======================================================
(PID.TID 0000.0001) // Begin MONITOR dynamic field statistics
(PID.TID 0000.0001) // =======================================================
(PID.TID 0000.0001) %MON time_tsnumber                =                    15
(PID.TID 0000.0001) %MON time_secondsf                =   3.7500000000000E+01
(PID.TID 0000.0001) %MON dynstat_eta_max              =   0.0000000000000E+00
(PID.TID 0000.0001) %MON dynstat_eta_min              =   0.0000000000000E+00
(PID.TID 0000.0001) %MON dynstat_eta_mean             =   0.0000000000000E+00
(PID.TID 0000.0001) %MON dynstat_eta_sd               =   0.0000000000000E+00
(PID.TID 0000.0001) %MON dynstat_eta_del2             =   0.0000000000000E+00
(PID.TID 0000.0001) %MON dynstat_uvel_max             =   9.8437500000000E-03
(PID.TID 0000.0001) %MON dynstat_uvel_min             =  -9.8437500000000E-03
(PID.TID 0000.0001) %MON dynstat_uvel_mean            =   0.0000000000000E+00
(PID.TID 0000.0001) %MON dynstat_uvel_sd              =   5.7727978755972E-03
(PID.TID 0000.0001) %MON dynstat_uvel_del2            =   1.0089048364799E-20
(PID.TID 0000.0001) %MON dynstat_vvel_max             =   9.8437500000000E-03
(PID.TID 0000.0001) %MON dynstat_vvel_min             =  -9.8437500000000E-03
(PID.TID 0000.0001) %MON dynstat_vvel_mean            =   0.0000000000000E+00
(PID.TID 0000.0001) %MON dynstat_vvel_sd              =   5.7727978755972E-03
(PID.TID 0000.0001) %MON dynstat_vvel_del2            =   1.0089048364799E-20
(PID.TID 0000.0001) %MON dynstat_wvel_max             =   1.1914062500000E-05
(PID.TID 0000.0001) %MON dynstat_wvel_min             =  -1.1914062500000E-05
(PID.TID 0000.0001) %MON dynstat_wvel_mean            =   3.4694469519536E-25
(PID.TID 0000.0001) %MON dynstat_wvel_sd              =   1.7200872247780E-06
(PID.TID 0000.0001) %MON dynstat_wvel_del2            =   2.8187489626940E-08
(PID.TID 0000.0001) %MON dynstat_theta_max            =  -1.6200000000000E+00
(PID.TID 0000.0001) %MON dynstat_theta_min            =  -1.6200000000000E+00
(PID.TID 0000.0001) %MON dynstat_theta_mean           =  -1.6200000000000E+00
(PID.TID 0000.0001) %MON dynstat_theta_sd             =   0.0000000000000E+00
(PID.TID 0000.0001) %MON dynstat_theta_del2           =   0.0000000000000E+00
(PID.TID 0000.0001) %MON dynstat_salt_max             =   3.0000000000000E+01
(PID.TID 0000.0001) %MON dynstat_salt_min             =   3.0000000000000E+01
(PID.TID 0000.0001) %MON dynstat_salt_mean            =   3.0000000000000E+01
(PID.TID 0000.0001) %MON dynstat_salt_sd              =   0.0000000000000E+00
(PID.TID 0000.0001) %MON dynstat_salt_del2            =   0.0000000000000E+00
(PID.TID 0000.0001) %MON trAdv_CFL_u_max              =   3.0761718750000E-06
(PID.TID 0000.0001) %MON trAdv_CFL_v_max              =   3.0761718750000E-06
(PID.TID 0000.0001) %MON trAdv_CFL_w_max              =   2.9785156250000E-06
(PID.TID 0000.0001) %MON advcfl_uvel_max              =   3.0761718750000E-06
(PID.TID 0000.0001) %MON advcfl_vvel_max              =   3.0761718750000E-06
(PID.TID 0000.0001) %MON advcfl_wvel_max              =   5.9570312500000E-06
(PID.TID 0000.0001) %MON advcfl_W_hf_max              =   0.0000000000000E+00
(PID.TID 0000.0001) %MON pe_b_mean                    =   0.0000000000000E+00
(PID.TID 0000.0001) %MON ke_max                       =   9.0844726562500E-05
(PID.TID 0000.0001) %MON ke_mean                      =   3.2804489135742E-05
(PID.TID 0000.0001) %MON ke_vol                       =   2.6214400000000E+12
(PID.TID 0000.0001) %MON vort_r_min                   =  -7.8125000000000E-08
(PID.TID 0000.0001) %MON vort_r_max                   =   1.2304687500000E-06
(PID.TID 0000.0001) %MON vort_a_mean                  =   1.4856000000000E-04
(PID.TID 0000.0001) %MON vort_a_sd                    =   1.5312918562496E-06
(PID.TID 0000.0001) %MON vort_p_mean                  =   1.5552375000000E-04
(PID.TID 0000.0001) %MON vort_p_sd                    =   5.5921473110222E-05
(PID.TID 0000.0001) %MON surfExpan_theta_mean         =   0.0000000000000E+00
(PID.TID 0000.0001) %MON surfExpan_salt_mean          =   1.3877787807814E-23
(PID.TID 0000.0001) // =======================================================
(PID.TID 0000.0001) // End MONITOR dynamic field statistics
(PID.TID 0000.0001) // =======================================================
(PID.TID 0000.0001) // =======================================================
(PID.TID 0000.0001) // Begin MONITOR SEAICE statistics
(PID.TID 0000.0001) // =======================================================
(PID.TID 0000.0001) %MON seaice_tsnumber              =                    15
(PID.TID 0000.0001) %MON seaice_time_sec              =   3.7500000000000E+01
(PID.TID 0000.0001) %MON seaice_uice_max              =   2.5714564669264E-02
(PID.TID 0000.0001) %MON seaice_uice_min              =  -2.6182001730352E-02
(PID.TID 0000.0001) %MON seaice_uice_mean             =  -6.5926782398005E-07
(PID.TID 0000.0001) %MON seaice_uice_sd               =   1.1044533024949E-02
(PID.TID 0000.0001) %MON seaice_uice_del2             =   3.2068315297894E-06
(PID.TID 0000.0001) %MON seaice_vice_max              =   2.5087884395659E-02
(PID.TID 0000.0001) %MON seaice_vice_min              =  -2.5423242968884E-02
(PID.TID 0000.0001) %MON seaice_vice_mean             =   2.9341367514988E-06
(PID.TID 0000.0001) %MON seaice_vice_sd               =   1.0992627791712E-02
(PID.TID 0000.0001) %MON seaice_vice_del2             =   3.2113058302057E-06
(PID.TID 0000.0001) %MON seaice_area_max              =   1.0000000000000E+00
(PID.TID 0000.0001) %MON seaice_area_min              =   9.9999152402693E-01
(PID.TID 0000.0001) %MON seaice_area_mean             =   9.9999950460925E-01
(PID.TID 0000.0001) %MON seaice_area_sd               =   1.1378947551761E-06
(PID.TID 0000.0001) %MON seaice_area_del2             =   1.4024446983775E-08
(PID.TID 0000.0001) %MON seaice_heff_max              =   3.0999854108070E-01
(PID.TID 0000.0001) %MON seaice_heff_min              =   2.9006042962160E-01
(PID.TID 0000.0001) %MON seaice_heff_mean             =   3.0067126525963E-01
(PID.TID 0000.0001) %MON seaice_heff_sd               =   5.0069249163958E-03
(PID.TID 0000.0001) %MON seaice_heff_del2             =   1.2853740454196E-05
(PID.TID 0000.0001) %MON seaice_hsnow_max             =   0.0000000000000E+00
(PID.TID 0000.0001) %MON seaice_hsnow_min             =   0.0000000000000E+00
(PID.TID 0000.0001) %MON seaice_hsnow_mean            =   0.0000000000000E+00
(PID.TID 0000.0001) %MON seaice_hsnow_sd              =   0.0000000000000E+00
(PID.TID 0000.0001) %MON seaice_hsnow_del2            =   0.0000000000000E+00
(PID.TID 0000.0001) // =======================================================
(PID.TID 0000.0001) // End MONITOR SEAICE statistics
(PID.TID 0000.0001) // =======================================================
 Computing Diagnostic #    163  SIuice       Counter:       1   Parms: UU      M1      
           Vector  Mate for  SIuice       Diagnostic #    164  SIvice   exists 
 Computing Diagnostic #    164  SIvice       Counter:       1   Parms: VV      M1      
           Vector  Mate for  SIvice       Diagnostic #    163  SIuice   exists 
 Computing Diagnostic #    149  SIheff       Counter:       1   Parms: SM      M1      
 Computing Diagnostic #    146  SIarea       Counter:       1   Parms: SM      M1      
 Computing Diagnostic #    228  SIshear      Counter:       1   Parms: SM      M1      
 Computing Diagnostic #    233  SIcohes      Counter:       1   Parms: SM      M1      
 Computing Diagnostic #    221  SIsig1       Counter:       1   Parms: SM      M1      
 Computing Diagnostic #    222  SIsig2       Counter:       1   Parms: SM      M1      
 Computing Diagnostic #    231  SIdamage     Counter:       1   Parms: SM      M1      
 Computing Diagnostic #    165  SItaux       Counter:       1   Parms: UU      U1      
           Vector  Mate for  SItaux       Diagnostic #    166  SItauy   exists 
 Computing Diagnostic #    166  SItauy       Counter:       1   Parms: VV      U1      
           Vector  Mate for  SItauy       Diagnostic #    165  SItaux   exists 
 Computing Diagnostic #    133  EXFuwind     Counter:       1   Parms: UM      U1      
 Computing Diagnostic #    134  EXFvwind     Counter:       1   Parms: VM      U1      
(PID.TID 0000.0001)  S/R SEAICE_KRYLOV: Picard iterate / total, KRYLOVgamma_lin, initial norm =       1   1501 0.10000E+00 0.10868E+00
(PID.TID 0000.0001)  S/R SEAICE_KRYLOV: Picard iterate / total =      1 /   1501, Nb. of FGMRES iterations =      1
(PID.TID 0000.0001)  S/R SEAICE_KRYLOV: Picard iterate / total, KRYLOVgamma_lin, initial norm =       2   1502 0.50000E-01 0.14714E-03
(PID.TID 0000.0001)  S/R SEAICE_KRYLOV: Picard iterate / total =      2 /   1502, Nb. of FGMRES iterations =      1
(PID.TID 0000.0001)  S/R SEAICE_KRYLOV: Picard iterate / total, KRYLOVgamma_lin, initial norm =       3   1503 0.50000E-01 0.30424E-04
(PID.TID 0000.0001)  S/R SEAICE_KRYLOV: Picard iterate / total =      3 /   1503, Nb. of FGMRES iterations =      1
(PID.TID 0000.0001)  S/R SEAICE_KRYLOV: Picard iterate / total, KRYLOVgamma_lin, initial norm =       4   1504 0.33333E-01 0.16620E-04
(PID.TID 0000.0001)  S/R SEAICE_KRYLOV: Picard iterate / total =      4 /   1504, Nb. of FGMRES iterations =      1
(PID.TID 0000.0001)  S/R SEAICE_KRYLOV: Picard iterate / total, KRYLOVgamma_lin, initial norm =       5   1505 0.33333E-01 0.81704E-05
(PID.TID 0000.0001)  S/R SEAICE_KRYLOV: Picard iterate / total =      5 /   1505, Nb. of FGMRES iterations =      1
(PID.TID 0000.0001)  S/R SEAICE_KRYLOV: Picard iterate / total, KRYLOVgamma_lin, initial norm =       6   1506 0.33333E-01 0.40954E-05
(PID.TID 0000.0001)  S/R SEAICE_KRYLOV: Picard iterate / total =      6 /   1506, Nb. of FGMRES iterations =      1
(PID.TID 0000.0001)  S/R SEAICE_KRYLOV: Picard iterate / total, KRYLOVgamma_lin, initial norm =       7   1507 0.33333E-01 0.20469E-05
(PID.TID 0000.0001)  S/R SEAICE_KRYLOV: Picard iterate / total =      7 /   1507, Nb. of FGMRES iterations =      1
(PID.TID 0000.0001)  S/R SEAICE_KRYLOV: Picard iterate / total, KRYLOVgamma_lin, initial norm =       8   1508 0.25000E-01 0.10235E-05
(PID.TID 0000.0001)  S/R SEAICE_KRYLOV: Picard iterate / total =      8 /   1508, Nb. of FGMRES iterations =      1
(PID.TID 0000.0001)  S/R SEAICE_KRYLOV: Picard iterate / total, KRYLOVgamma_lin, initial norm =       9   1509 0.20000E-01 0.51175E-06
(PID.TID 0000.0001)  S/R SEAICE_KRYLOV: Picard iterate / total =      9 /   1509, Nb. of FGMRES iterations =      1
(PID.TID 0000.0001)  S/R SEAICE_KRYLOV: Picard iterate / total, KRYLOVgamma_lin, initial norm =      10   1510 0.12500E-01 0.25588E-06
(PID.TID 0000.0001)  S/R SEAICE_KRYLOV: Picard iterate / total =     10 /   1510, Nb. of FGMRES iterations =      1
(PID.TID 0000.0001)  S/R SEAICE_KRYLOV: Picard iterate / total, KRYLOVgamma_lin, initial norm =      11   1511 0.12500E-01 0.12794E-06
(PID.TID 0000.0001)  S/R SEAICE_KRYLOV: Picard iterate / total =     11 /   1511, Nb. of FGMRES iterations =      1
(PID.TID 0000.0001)  S/R SEAICE_KRYLOV: Picard iterate / total, KRYLOVgamma_lin, initial norm =      12   1512 0.12500E-01 0.63969E-07
(PID.TID 0000.0001)  S/R SEAICE_KRYLOV: Picard iterate / total =     12 /   1512, Nb. of FGMRES iterations =      1
(PID.TID 0000.0001)  S/R SEAICE_KRYLOV: Picard iterate / total, KRYLOVgamma_lin, initial norm =      13   1513 0.12500E-01 0.31985E-07
(PID.TID 0000.0001)  S/R SEAICE_KRYLOV: Picard iterate / total =     13 /   1513, Nb. of FGMRES iterations =      1
(PID.TID 0000.0001)  S/R SEAICE_KRYLOV: Picard iterate / total, KRYLOVgamma_lin, initial norm =      14   1514 0.12500E-01 0.15992E-07
(PID.TID 0000.0001)  S/R SEAICE_KRYLOV: Picard iterate / total =     14 /   1514, Nb. of FGMRES iterations =      1
(PID.TID 0000.0001)  S/R SEAICE_KRYLOV: Picard iterate / total, KRYLOVgamma_lin, initial norm =      15   1515 0.12500E-01 0.79961E-08
(PID.TID 0000.0001)  S/R SEAICE_KRYLOV: Picard iterate / total =     15 /   1515, Nb. of FGMRES iterations =      1
(PID.TID 0000.0001)  S/R SEAICE_KRYLOV: Picard iterate / total, KRYLOVgamma_lin, initial norm =      16   1516 0.12500E-01 0.39981E-08
(PID.TID 0000.0001)  S/R SEAICE_KRYLOV: Picard iterate / total =     16 /   1516, Nb. of FGMRES iterations =      1
(PID.TID 0000.0001)  S/R SEAICE_KRYLOV: Picard iterate / total, KRYLOVgamma_lin, initial norm =      17   1517 0.12500E-01 0.19990E-08
(PID.TID 0000.0001)  S/R SEAICE_KRYLOV: Picard iterate / total =     17 /   1517, Nb. of FGMRES iterations =      1
(PID.TID 0000.0001)  S/R SEAICE_KRYLOV: Picard iterate / total, KRYLOVgamma_lin, initial norm =      18   1518 0.12500E-01 0.99952E-09
(PID.TID 0000.0001)  S/R SEAICE_KRYLOV: Picard iterate / total =     18 /   1518, Nb. of FGMRES iterations =      1
(PID.TID 0000.0001)  S/R SEAICE_KRYLOV: Picard iterate / total, KRYLOVgamma_lin, initial norm =      19   1519 0.12500E-01 0.49976E-09
(PID.TID 0000.0001)  S/R SEAICE_KRYLOV: Picard iterate / total =     19 /   1519, Nb. of FGMRES iterations =      1
(PID.TID 0000.0001)  S/R SEAICE_KRYLOV: Picard iterate / total, KRYLOVgamma_lin, initial norm =      20   1520 0.12500E-01 0.24988E-09
(PID.TID 0000.0001)  S/R SEAICE_KRYLOV: Picard iterate / total =     20 /   1520, Nb. of FGMRES iterations =      1
(PID.TID 0000.0001)  S/R SEAICE_KRYLOV: Picard iterate / total, KRYLOVgamma_lin, initial norm =      21   1521 0.12500E-01 0.12494E-09
(PID.TID 0000.0001)  S/R SEAICE_KRYLOV: Picard iterate / total =     21 /   1521, Nb. of FGMRES iterations =      1
(PID.TID 0000.0001)  S/R SEAICE_KRYLOV: Picard iterate / total, KRYLOVgamma_lin, initial norm =      22   1522 0.12500E-01 0.62470E-10
(PID.TID 0000.0001)  S/R SEAICE_KRYLOV: Picard iterate / total =     22 /   1522, Nb. of FGMRES iterations =      1
(PID.TID 0000.0001)  S/R SEAICE_KRYLOV: Picard iterate / total, KRYLOVgamma_lin, initial norm =      23   1523 0.12500E-01 0.31235E-10
(PID.TID 0000.0001)  S/R SEAICE_KRYLOV: Picard iterate / total =     23 /   1523, Nb. of FGMRES iterations =      1
(PID.TID 0000.0001)  S/R SEAICE_KRYLOV: Picard iterate / total, KRYLOVgamma_lin, initial norm =      24   1524 0.12500E-01 0.15617E-10
(PID.TID 0000.0001)  S/R SEAICE_KRYLOV: Picard iterate / total =     24 /   1524, Nb. of FGMRES iterations =      1
(PID.TID 0000.0001)  S/R SEAICE_KRYLOV: Picard iterate / total, KRYLOVgamma_lin, initial norm =      25   1525 0.12500E-01 0.78087E-11
(PID.TID 0000.0001)  S/R SEAICE_KRYLOV: Picard iterate / total =     25 /   1525, Nb. of FGMRES iterations =      1
(PID.TID 0000.0001)  S/R SEAICE_KRYLOV: Picard iterate / total, KRYLOVgamma_lin, initial norm =      26   1526 0.12500E-01 0.39044E-11
(PID.TID 0000.0001)  S/R SEAICE_KRYLOV: Picard iterate / total =     26 /   1526, Nb. of FGMRES iterations =      1
(PID.TID 0000.0001)  S/R SEAICE_KRYLOV: Picard iterate / total, KRYLOVgamma_lin, initial norm =      27   1527 0.12500E-01 0.19522E-11
(PID.TID 0000.0001)  S/R SEAICE_KRYLOV: Picard iterate / total =     27 /   1527, Nb. of FGMRES iterations =      1
(PID.TID 0000.0001)  S/R SEAICE_KRYLOV: Picard iterate / total, KRYLOVgamma_lin, initial norm =      28   1528 0.12500E-01 0.97609E-12
(PID.TID 0000.0001)  S/R SEAICE_KRYLOV: Picard iterate / total =     28 /   1528, Nb. of FGMRES iterations =      1
(PID.TID 0000.0001)  S/R SEAICE_KRYLOV: Picard iterate / total, KRYLOVgamma_lin, initial norm =      29   1529 0.12500E-01 0.48804E-12
(PID.TID 0000.0001)  S/R SEAICE_KRYLOV: Picard iterate / total =     29 /   1529, Nb. of FGMRES iterations =      1
(PID.TID 0000.0001)  S/R SEAICE_KRYLOV: Picard iterate / total, KRYLOVgamma_lin, initial norm =      30   1530 0.12500E-01 0.24402E-12
(PID.TID 0000.0001)  S/R SEAICE_KRYLOV: Picard iterate / total =     30 /   1530, Nb. of FGMRES iterations =      1
(PID.TID 0000.0001)  S/R SEAICE_KRYLOV: Picard iterate / total, KRYLOVgamma_lin, initial norm =      31   1531 0.12500E-01 0.12201E-12
(PID.TID 0000.0001)  S/R SEAICE_KRYLOV: Picard iterate / total =     31 /   1531, Nb. of FGMRES iterations =      1
(PID.TID 0000.0001)  S/R SEAICE_KRYLOV: Picard iterate / total, KRYLOVgamma_lin, final   norm =      32   1532 0.12500E-01 0.61007E-13
(PID.TID 0000.0001)  // =======================================================
(PID.TID 0000.0001)  // Begin KRYLOV statistics
(PID.TID 0000.0001)  // =======================================================
(PID.TID 0000.0001)  %KRYLOV_MON: time step              =         16
(PID.TID 0000.0001)  %KRYLOV_MON: Nb. of time steps      =          1
(PID.TID 0000.0001)  %KRYLOV_MON: Nb. of Picard steps    =         32
(PID.TID 0000.0001)  %KRYLOV_MON: Nb. of Krylov steps    =         31
(PID.TID 0000.0001)  %KRYLOV_MON: Nb. of Picard failures =          0
(PID.TID 0000.0001)  %KRYLOV_MON: Nb. of Krylov failures =          0
(PID.TID 0000.0001)  // =======================================================
(PID.TID 0000.0001)  // End KRYLOV statistics
(PID.TID 0000.0001)  // =======================================================
(PID.TID 0000.0001)  S/R SEAICE_KRYLOV: Total number FGMRES iterations =     31 in timestep         16
(PID.TID 0000.0001) // =======================================================
(PID.TID 0000.0001) // Begin MONITOR dynamic field statistics
(PID.TID 0000.0001) // =======================================================
(PID.TID 0000.0001) %MON time_tsnumber                =                    16
(PID.TID 0000.0001) %MON time_secondsf                =   4.0000000000000E+01
(PID.TID 0000.0001) %MON dynstat_eta_max              =   0.0000000000000E+00
(PID.TID 0000.0001) %MON dynstat_eta_min              =   0.0000000000000E+00
(PID.TID 0000.0001) %MON dynstat_eta_mean             =   0.0000000000000E+00
(PID.TID 0000.0001) %MON dynstat_eta_sd               =   0.0000000000000E+00
(PID.TID 0000.0001) %MON dynstat_eta_del2             =   0.0000000000000E+00
(PID.TID 0000.0001) %MON dynstat_uvel_max             =   9.8437500000000E-03
(PID.TID 0000.0001) %MON dynstat_uvel_min             =  -9.8437500000000E-03
(PID.TID 0000.0001) %MON dynstat_uvel_mean            =   0.0000000000000E+00
(PID.TID 0000.0001) %MON dynstat_uvel_sd              =   5.7727978755972E-03
(PID.TID 0000.0001) %MON dynstat_uvel_del2            =   1.0089048364799E-20
(PID.TID 0000.0001) %MON dynstat_vvel_max             =   9.8437500000000E-03
(PID.TID 0000.0001) %MON dynstat_vvel_min             =  -9.8437500000000E-03
(PID.TID 0000.0001) %MON dynstat_vvel_mean            =   0.0000000000000E+00
(PID.TID 0000.0001) %MON dynstat_vvel_sd              =   5.7727978755972E-03
(PID.TID 0000.0001) %MON dynstat_vvel_del2            =   1.0089048364799E-20
(PID.TID 0000.0001) %MON dynstat_wvel_max             =   1.1914062500000E-05
(PID.TID 0000.0001) %MON dynstat_wvel_min             =  -1.1914062500000E-05
(PID.TID 0000.0001) %MON dynstat_wvel_mean            =   3.4694469519536E-25
(PID.TID 0000.0001) %MON dynstat_wvel_sd              =   1.7200872247780E-06
(PID.TID 0000.0001) %MON dynstat_wvel_del2            =   2.8187489626940E-08
(PID.TID 0000.0001) %MON dynstat_theta_max            =  -1.6200000000000E+00
(PID.TID 0000.0001) %MON dynstat_theta_min            =  -1.6200000000000E+00
(PID.TID 0000.0001) %MON dynstat_theta_mean           =  -1.6200000000000E+00
(PID.TID 0000.0001) %MON dynstat_theta_sd             =   0.0000000000000E+00
(PID.TID 0000.0001) %MON dynstat_theta_del2           =   0.0000000000000E+00
(PID.TID 0000.0001) %MON dynstat_salt_max             =   3.0000000000000E+01
(PID.TID 0000.0001) %MON dynstat_salt_min             =   3.0000000000000E+01
(PID.TID 0000.0001) %MON dynstat_salt_mean            =   3.0000000000000E+01
(PID.TID 0000.0001) %MON dynstat_salt_sd              =   0.0000000000000E+00
(PID.TID 0000.0001) %MON dynstat_salt_del2            =   0.0000000000000E+00
(PID.TID 0000.0001) %MON trAdv_CFL_u_max              =   3.0761718750000E-06
(PID.TID 0000.0001) %MON trAdv_CFL_v_max              =   3.0761718750000E-06
(PID.TID 0000.0001) %MON trAdv_CFL_w_max              =   2.9785156250000E-06
(PID.TID 0000.0001) %MON advcfl_uvel_max              =   3.0761718750000E-06
(PID.TID 0000.0001) %MON advcfl_vvel_max              =   3.0761718750000E-06
(PID.TID 0000.0001) %MON advcfl_wvel_max              =   5.9570312500000E-06
(PID.TID 0000.0001) %MON advcfl_W_hf_max              =   0.0000000000000E+00
(PID.TID 0000.0001) %MON pe_b_mean                    =   0.0000000000000E+00
(PID.TID 0000.0001) %MON ke_max                       =   9.0844726562500E-05
(PID.TID 0000.0001) %MON ke_mean                      =   3.2804489135742E-05
(PID.TID 0000.0001) %MON ke_vol                       =   2.6214400000000E+12
(PID.TID 0000.0001) %MON vort_r_min                   =  -7.8125000000000E-08
(PID.TID 0000.0001) %MON vort_r_max                   =   1.2304687500000E-06
(PID.TID 0000.0001) %MON vort_a_mean                  =   1.4856000000000E-04
(PID.TID 0000.0001) %MON vort_a_sd                    =   1.5312918562496E-06
(PID.TID 0000.0001) %MON vort_p_mean                  =   1.5552375000000E-04
(PID.TID 0000.0001) %MON vort_p_sd                    =   5.5921473110222E-05
(PID.TID 0000.0001) %MON surfExpan_theta_mean         =   0.0000000000000E+00
(PID.TID 0000.0001) %MON surfExpan_salt_mean          =   1.3877787807814E-23
(PID.TID 0000.0001) // =======================================================
(PID.TID 0000.0001) // End MONITOR dynamic field statistics
(PID.TID 0000.0001) // =======================================================
(PID.TID 0000.0001) // =======================================================
(PID.TID 0000.0001) // Begin MONITOR SEAICE statistics
(PID.TID 0000.0001) // =======================================================
(PID.TID 0000.0001) %MON seaice_tsnumber              =                    16
(PID.TID 0000.0001) %MON seaice_time_sec              =   4.0000000000000E+01
(PID.TID 0000.0001) %MON seaice_uice_max              =   2.7405593874541E-02
(PID.TID 0000.0001) %MON seaice_uice_min              =  -2.7890623851087E-02
(PID.TID 0000.0001) %MON seaice_uice_mean             =  -7.1317581791590E-07
(PID.TID 0000.0001) %MON seaice_uice_sd               =   1.1762863247302E-02
(PID.TID 0000.0001) %MON seaice_uice_del2             =   3.4107361781007E-06
(PID.TID 0000.0001) %MON seaice_vice_max              =   2.6730610956519E-02
(PID.TID 0000.0001) %MON seaice_vice_min              =  -2.7092977995163E-02
(PID.TID 0000.0001) %MON seaice_vice_mean             =   3.1249822333118E-06
(PID.TID 0000.0001) %MON seaice_vice_sd               =   1.1707761485191E-02
(PID.TID 0000.0001) %MON seaice_vice_del2             =   3.4180909725450E-06
(PID.TID 0000.0001) %MON seaice_area_max              =   1.0000000000000E+00
(PID.TID 0000.0001) %MON seaice_area_min              =   9.9999037051616E-01
(PID.TID 0000.0001) %MON seaice_area_mean             =   9.9999943951747E-01
(PID.TID 0000.0001) %MON seaice_area_sd               =   1.2925059486653E-06
(PID.TID 0000.0001) %MON seaice_area_del2             =   1.6020341828081E-08
(PID.TID 0000.0001) %MON seaice_heff_max              =   3.0999852360274E-01
(PID.TID 0000.0001) %MON seaice_heff_min              =   2.9006041163261E-01
(PID.TID 0000.0001) %MON seaice_heff_mean             =   3.0067126525963E-01
(PID.TID 0000.0001) %MON seaice_heff_sd               =   5.0069251119782E-03
(PID.TID 0000.0001) %MON seaice_heff_del2             =   1.2853739343521E-05
(PID.TID 0000.0001) %MON seaice_hsnow_max             =   0.0000000000000E+00
(PID.TID 0000.0001) %MON seaice_hsnow_min             =   0.0000000000000E+00
(PID.TID 0000.0001) %MON seaice_hsnow_mean            =   0.0000000000000E+00
(PID.TID 0000.0001) %MON seaice_hsnow_sd              =   0.0000000000000E+00
(PID.TID 0000.0001) %MON seaice_hsnow_del2            =   0.0000000000000E+00
(PID.TID 0000.0001) // =======================================================
(PID.TID 0000.0001) // End MONITOR SEAICE statistics
(PID.TID 0000.0001) // =======================================================
 Computing Diagnostic #    163  SIuice       Counter:       1   Parms: UU      M1      
           Vector  Mate for  SIuice       Diagnostic #    164  SIvice   exists 
 Computing Diagnostic #    164  SIvice       Counter:       1   Parms: VV      M1      
           Vector  Mate for  SIvice       Diagnostic #    163  SIuice   exists 
 Computing Diagnostic #    149  SIheff       Counter:       1   Parms: SM      M1      
 Computing Diagnostic #    146  SIarea       Counter:       1   Parms: SM      M1      
 Computing Diagnostic #    228  SIshear      Counter:       1   Parms: SM      M1      
 Computing Diagnostic #    233  SIcohes      Counter:       1   Parms: SM      M1      
 Computing Diagnostic #    221  SIsig1       Counter:       1   Parms: SM      M1      
 Computing Diagnostic #    222  SIsig2       Counter:       1   Parms: SM      M1      
 Computing Diagnostic #    231  SIdamage     Counter:       1   Parms: SM      M1      
 Computing Diagnostic #    165  SItaux       Counter:       1   Parms: UU      U1      
           Vector  Mate for  SItaux       Diagnostic #    166  SItauy   exists 
 Computing Diagnostic #    166  SItauy       Counter:       1   Parms: VV      U1      
           Vector  Mate for  SItauy       Diagnostic #    165  SItaux   exists 
 Computing Diagnostic #    133  EXFuwind     Counter:       1   Parms: UM      U1      
 Computing Diagnostic #    134  EXFvwind     Counter:       1   Parms: VM      U1      
(PID.TID 0000.0001)  S/R SEAICE_KRYLOV: Picard iterate / total, KRYLOVgamma_lin, initial norm =       1   1601 0.10000E+00 0.10838E+00
(PID.TID 0000.0001)  S/R SEAICE_KRYLOV: Picard iterate / total =      1 /   1601, Nb. of FGMRES iterations =      1
(PID.TID 0000.0001)  S/R SEAICE_KRYLOV: Picard iterate / total, KRYLOVgamma_lin, initial norm =       2   1602 0.50000E-01 0.13976E-03
(PID.TID 0000.0001)  S/R SEAICE_KRYLOV: Picard iterate / total =      2 /   1602, Nb. of FGMRES iterations =      1
(PID.TID 0000.0001)  S/R SEAICE_KRYLOV: Picard iterate / total, KRYLOVgamma_lin, initial norm =       3   1603 0.50000E-01 0.32721E-04
(PID.TID 0000.0001)  S/R SEAICE_KRYLOV: Picard iterate / total =      3 /   1603, Nb. of FGMRES iterations =      1
(PID.TID 0000.0001)  S/R SEAICE_KRYLOV: Picard iterate / total, KRYLOVgamma_lin, initial norm =       4   1604 0.33333E-01 0.17399E-04
(PID.TID 0000.0001)  S/R SEAICE_KRYLOV: Picard iterate / total =      4 /   1604, Nb. of FGMRES iterations =      1
(PID.TID 0000.0001)  S/R SEAICE_KRYLOV: Picard iterate / total, KRYLOVgamma_lin, initial norm =       5   1605 0.33333E-01 0.85958E-05
(PID.TID 0000.0001)  S/R SEAICE_KRYLOV: Picard iterate / total =      5 /   1605, Nb. of FGMRES iterations =      1
(PID.TID 0000.0001)  S/R SEAICE_KRYLOV: Picard iterate / total, KRYLOVgamma_lin, initial norm =       6   1606 0.33333E-01 0.43054E-05
(PID.TID 0000.0001)  S/R SEAICE_KRYLOV: Picard iterate / total =      6 /   1606, Nb. of FGMRES iterations =      1
(PID.TID 0000.0001)  S/R SEAICE_KRYLOV: Picard iterate / total, KRYLOVgamma_lin, initial norm =       7   1607 0.33333E-01 0.21521E-05
(PID.TID 0000.0001)  S/R SEAICE_KRYLOV: Picard iterate / total =      7 /   1607, Nb. of FGMRES iterations =      1
(PID.TID 0000.0001)  S/R SEAICE_KRYLOV: Picard iterate / total, KRYLOVgamma_lin, initial norm =       8   1608 0.25000E-01 0.10761E-05
(PID.TID 0000.0001)  S/R SEAICE_KRYLOV: Picard iterate / total =      8 /   1608, Nb. of FGMRES iterations =      1
(PID.TID 0000.0001)  S/R SEAICE_KRYLOV: Picard iterate / total, KRYLOVgamma_lin, initial norm =       9   1609 0.20000E-01 0.53805E-06
(PID.TID 0000.0001)  S/R SEAICE_KRYLOV: Picard iterate / total =      9 /   1609, Nb. of FGMRES iterations =      1
(PID.TID 0000.0001)  S/R SEAICE_KRYLOV: Picard iterate / total, KRYLOVgamma_lin, initial norm =      10   1610 0.12500E-01 0.26902E-06
(PID.TID 0000.0001)  S/R SEAICE_KRYLOV: Picard iterate / total =     10 /   1610, Nb. of FGMRES iterations =      1
(PID.TID 0000.0001)  S/R SEAICE_KRYLOV: Picard iterate / total, KRYLOVgamma_lin, initial norm =      11   1611 0.12500E-01 0.13451E-06
(PID.TID 0000.0001)  S/R SEAICE_KRYLOV: Picard iterate / total =     11 /   1611, Nb. of FGMRES iterations =      1
(PID.TID 0000.0001)  S/R SEAICE_KRYLOV: Picard iterate / total, KRYLOVgamma_lin, initial norm =      12   1612 0.12500E-01 0.67256E-07
(PID.TID 0000.0001)  S/R SEAICE_KRYLOV: Picard iterate / total =     12 /   1612, Nb. of FGMRES iterations =      1
(PID.TID 0000.0001)  S/R SEAICE_KRYLOV: Picard iterate / total, KRYLOVgamma_lin, initial norm =      13   1613 0.12500E-01 0.33628E-07
(PID.TID 0000.0001)  S/R SEAICE_KRYLOV: Picard iterate / total =     13 /   1613, Nb. of FGMRES iterations =      1
(PID.TID 0000.0001)  S/R SEAICE_KRYLOV: Picard iterate / total, KRYLOVgamma_lin, initial norm =      14   1614 0.12500E-01 0.16814E-07
(PID.TID 0000.0001)  S/R SEAICE_KRYLOV: Picard iterate / total =     14 /   1614, Nb. of FGMRES iterations =      1
(PID.TID 0000.0001)  S/R SEAICE_KRYLOV: Picard iterate / total, KRYLOVgamma_lin, initial norm =      15   1615 0.12500E-01 0.84070E-08
(PID.TID 0000.0001)  S/R SEAICE_KRYLOV: Picard iterate / total =     15 /   1615, Nb. of FGMRES iterations =      1
(PID.TID 0000.0001)  S/R SEAICE_KRYLOV: Picard iterate / total, KRYLOVgamma_lin, initial norm =      16   1616 0.12500E-01 0.42035E-08
(PID.TID 0000.0001)  S/R SEAICE_KRYLOV: Picard iterate / total =     16 /   1616, Nb. of FGMRES iterations =      1
(PID.TID 0000.0001)  S/R SEAICE_KRYLOV: Picard iterate / total, KRYLOVgamma_lin, initial norm =      17   1617 0.12500E-01 0.21018E-08
(PID.TID 0000.0001)  S/R SEAICE_KRYLOV: Picard iterate / total =     17 /   1617, Nb. of FGMRES iterations =      1
(PID.TID 0000.0001)  S/R SEAICE_KRYLOV: Picard iterate / total, KRYLOVgamma_lin, initial norm =      18   1618 0.12500E-01 0.10509E-08
(PID.TID 0000.0001)  S/R SEAICE_KRYLOV: Picard iterate / total =     18 /   1618, Nb. of FGMRES iterations =      1
(PID.TID 0000.0001)  S/R SEAICE_KRYLOV: Picard iterate / total, KRYLOVgamma_lin, initial norm =      19   1619 0.12500E-01 0.52544E-09
(PID.TID 0000.0001)  S/R SEAICE_KRYLOV: Picard iterate / total =     19 /   1619, Nb. of FGMRES iterations =      1
(PID.TID 0000.0001)  S/R SEAICE_KRYLOV: Picard iterate / total, KRYLOVgamma_lin, initial norm =      20   1620 0.12500E-01 0.26272E-09
(PID.TID 0000.0001)  S/R SEAICE_KRYLOV: Picard iterate / total =     20 /   1620, Nb. of FGMRES iterations =      1
(PID.TID 0000.0001)  S/R SEAICE_KRYLOV: Picard iterate / total, KRYLOVgamma_lin, initial norm =      21   1621 0.12500E-01 0.13136E-09
(PID.TID 0000.0001)  S/R SEAICE_KRYLOV: Picard iterate / total =     21 /   1621, Nb. of FGMRES iterations =      1
(PID.TID 0000.0001)  S/R SEAICE_KRYLOV: Picard iterate / total, KRYLOVgamma_lin, initial norm =      22   1622 0.12500E-01 0.65680E-10
(PID.TID 0000.0001)  S/R SEAICE_KRYLOV: Picard iterate / total =     22 /   1622, Nb. of FGMRES iterations =      1
(PID.TID 0000.0001)  S/R SEAICE_KRYLOV: Picard iterate / total, KRYLOVgamma_lin, initial norm =      23   1623 0.12500E-01 0.32840E-10
(PID.TID 0000.0001)  S/R SEAICE_KRYLOV: Picard iterate / total =     23 /   1623, Nb. of FGMRES iterations =      1
(PID.TID 0000.0001)  S/R SEAICE_KRYLOV: Picard iterate / total, KRYLOVgamma_lin, initial norm =      24   1624 0.12500E-01 0.16420E-10
(PID.TID 0000.0001)  S/R SEAICE_KRYLOV: Picard iterate / total =     24 /   1624, Nb. of FGMRES iterations =      1
(PID.TID 0000.0001)  S/R SEAICE_KRYLOV: Picard iterate / total, KRYLOVgamma_lin, initial norm =      25   1625 0.12500E-01 0.82100E-11
(PID.TID 0000.0001)  S/R SEAICE_KRYLOV: Picard iterate / total =     25 /   1625, Nb. of FGMRES iterations =      1
(PID.TID 0000.0001)  S/R SEAICE_KRYLOV: Picard iterate / total, KRYLOVgamma_lin, initial norm =      26   1626 0.12500E-01 0.41050E-11
(PID.TID 0000.0001)  S/R SEAICE_KRYLOV: Picard iterate / total =     26 /   1626, Nb. of FGMRES iterations =      1
(PID.TID 0000.0001)  S/R SEAICE_KRYLOV: Picard iterate / total, KRYLOVgamma_lin, initial norm =      27   1627 0.12500E-01 0.20525E-11
(PID.TID 0000.0001)  S/R SEAICE_KRYLOV: Picard iterate / total =     27 /   1627, Nb. of FGMRES iterations =      1
(PID.TID 0000.0001)  S/R SEAICE_KRYLOV: Picard iterate / total, KRYLOVgamma_lin, initial norm =      28   1628 0.12500E-01 0.10263E-11
(PID.TID 0000.0001)  S/R SEAICE_KRYLOV: Picard iterate / total =     28 /   1628, Nb. of FGMRES iterations =      1
(PID.TID 0000.0001)  S/R SEAICE_KRYLOV: Picard iterate / total, KRYLOVgamma_lin, initial norm =      29   1629 0.12500E-01 0.51312E-12
(PID.TID 0000.0001)  S/R SEAICE_KRYLOV: Picard iterate / total =     29 /   1629, Nb. of FGMRES iterations =      1
(PID.TID 0000.0001)  S/R SEAICE_KRYLOV: Picard iterate / total, KRYLOVgamma_lin, initial norm =      30   1630 0.12500E-01 0.25656E-12
(PID.TID 0000.0001)  S/R SEAICE_KRYLOV: Picard iterate / total =     30 /   1630, Nb. of FGMRES iterations =      1
(PID.TID 0000.0001)  S/R SEAICE_KRYLOV: Picard iterate / total, KRYLOVgamma_lin, initial norm =      31   1631 0.12500E-01 0.12828E-12
(PID.TID 0000.0001)  S/R SEAICE_KRYLOV: Picard iterate / total =     31 /   1631, Nb. of FGMRES iterations =      1
(PID.TID 0000.0001)  S/R SEAICE_KRYLOV: Picard iterate / total, KRYLOVgamma_lin, final   norm =      32   1632 0.12500E-01 0.64143E-13
(PID.TID 0000.0001)  // =======================================================
(PID.TID 0000.0001)  // Begin KRYLOV statistics
(PID.TID 0000.0001)  // =======================================================
(PID.TID 0000.0001)  %KRYLOV_MON: time step              =         17
(PID.TID 0000.0001)  %KRYLOV_MON: Nb. of time steps      =          1
(PID.TID 0000.0001)  %KRYLOV_MON: Nb. of Picard steps    =         32
(PID.TID 0000.0001)  %KRYLOV_MON: Nb. of Krylov steps    =         31
(PID.TID 0000.0001)  %KRYLOV_MON: Nb. of Picard failures =          0
(PID.TID 0000.0001)  %KRYLOV_MON: Nb. of Krylov failures =          0
(PID.TID 0000.0001)  // =======================================================
(PID.TID 0000.0001)  // End KRYLOV statistics
(PID.TID 0000.0001)  // =======================================================
(PID.TID 0000.0001)  S/R SEAICE_KRYLOV: Total number FGMRES iterations =     31 in timestep         17
(PID.TID 0000.0001) // =======================================================
(PID.TID 0000.0001) // Begin MONITOR dynamic field statistics
(PID.TID 0000.0001) // =======================================================
(PID.TID 0000.0001) %MON time_tsnumber                =                    17
(PID.TID 0000.0001) %MON time_secondsf                =   4.2500000000000E+01
(PID.TID 0000.0001) %MON dynstat_eta_max              =   0.0000000000000E+00
(PID.TID 0000.0001) %MON dynstat_eta_min              =   0.0000000000000E+00
(PID.TID 0000.0001) %MON dynstat_eta_mean             =   0.0000000000000E+00
(PID.TID 0000.0001) %MON dynstat_eta_sd               =   0.0000000000000E+00
(PID.TID 0000.0001) %MON dynstat_eta_del2             =   0.0000000000000E+00
(PID.TID 0000.0001) %MON dynstat_uvel_max             =   9.8437500000000E-03
(PID.TID 0000.0001) %MON dynstat_uvel_min             =  -9.8437500000000E-03
(PID.TID 0000.0001) %MON dynstat_uvel_mean            =   0.0000000000000E+00
(PID.TID 0000.0001) %MON dynstat_uvel_sd              =   5.7727978755972E-03
(PID.TID 0000.0001) %MON dynstat_uvel_del2            =   1.0089048364799E-20
(PID.TID 0000.0001) %MON dynstat_vvel_max             =   9.8437500000000E-03
(PID.TID 0000.0001) %MON dynstat_vvel_min             =  -9.8437500000000E-03
(PID.TID 0000.0001) %MON dynstat_vvel_mean            =   0.0000000000000E+00
(PID.TID 0000.0001) %MON dynstat_vvel_sd              =   5.7727978755972E-03
(PID.TID 0000.0001) %MON dynstat_vvel_del2            =   1.0089048364799E-20
(PID.TID 0000.0001) %MON dynstat_wvel_max             =   1.1914062500000E-05
(PID.TID 0000.0001) %MON dynstat_wvel_min             =  -1.1914062500000E-05
(PID.TID 0000.0001) %MON dynstat_wvel_mean            =   3.4694469519536E-25
(PID.TID 0000.0001) %MON dynstat_wvel_sd              =   1.7200872247780E-06
(PID.TID 0000.0001) %MON dynstat_wvel_del2            =   2.8187489626940E-08
(PID.TID 0000.0001) %MON dynstat_theta_max            =  -1.6200000000000E+00
(PID.TID 0000.0001) %MON dynstat_theta_min            =  -1.6200000000000E+00
(PID.TID 0000.0001) %MON dynstat_theta_mean           =  -1.6200000000000E+00
(PID.TID 0000.0001) %MON dynstat_theta_sd             =   0.0000000000000E+00
(PID.TID 0000.0001) %MON dynstat_theta_del2           =   0.0000000000000E+00
(PID.TID 0000.0001) %MON dynstat_salt_max             =   3.0000000000000E+01
(PID.TID 0000.0001) %MON dynstat_salt_min             =   3.0000000000000E+01
(PID.TID 0000.0001) %MON dynstat_salt_mean            =   3.0000000000000E+01
(PID.TID 0000.0001) %MON dynstat_salt_sd              =   0.0000000000000E+00
(PID.TID 0000.0001) %MON dynstat_salt_del2            =   0.0000000000000E+00
(PID.TID 0000.0001) %MON trAdv_CFL_u_max              =   3.0761718750000E-06
(PID.TID 0000.0001) %MON trAdv_CFL_v_max              =   3.0761718750000E-06
(PID.TID 0000.0001) %MON trAdv_CFL_w_max              =   2.9785156250000E-06
(PID.TID 0000.0001) %MON advcfl_uvel_max              =   3.0761718750000E-06
(PID.TID 0000.0001) %MON advcfl_vvel_max              =   3.0761718750000E-06
(PID.TID 0000.0001) %MON advcfl_wvel_max              =   5.9570312500000E-06
(PID.TID 0000.0001) %MON advcfl_W_hf_max              =   0.0000000000000E+00
(PID.TID 0000.0001) %MON pe_b_mean                    =   0.0000000000000E+00
(PID.TID 0000.0001) %MON ke_max                       =   9.0844726562500E-05
(PID.TID 0000.0001) %MON ke_mean                      =   3.2804489135742E-05
(PID.TID 0000.0001) %MON ke_vol                       =   2.6214400000000E+12
(PID.TID 0000.0001) %MON vort_r_min                   =  -7.8125000000000E-08
(PID.TID 0000.0001) %MON vort_r_max                   =   1.2304687500000E-06
(PID.TID 0000.0001) %MON vort_a_mean                  =   1.4856000000000E-04
(PID.TID 0000.0001) %MON vort_a_sd                    =   1.5312918562496E-06
(PID.TID 0000.0001) %MON vort_p_mean                  =   1.5552375000000E-04
(PID.TID 0000.0001) %MON vort_p_sd                    =   5.5921473110222E-05
(PID.TID 0000.0001) %MON surfExpan_theta_mean         =   0.0000000000000E+00
(PID.TID 0000.0001) %MON surfExpan_salt_mean          =   1.3877787807814E-23
(PID.TID 0000.0001) // =======================================================
(PID.TID 0000.0001) // End MONITOR dynamic field statistics
(PID.TID 0000.0001) // =======================================================
(PID.TID 0000.0001) // =======================================================
(PID.TID 0000.0001) // Begin MONITOR SEAICE statistics
(PID.TID 0000.0001) // =======================================================
(PID.TID 0000.0001) %MON seaice_tsnumber              =                    17
(PID.TID 0000.0001) %MON seaice_time_sec              =   4.2500000000000E+01
(PID.TID 0000.0001) %MON seaice_uice_max              =   2.9094264759409E-02
(PID.TID 0000.0001) %MON seaice_uice_min              =  -2.9595887465682E-02
(PID.TID 0000.0001) %MON seaice_uice_mean             =  -7.6762331346879E-07
(PID.TID 0000.0001) %MON seaice_uice_sd               =   1.2479203939751E-02
(PID.TID 0000.0001) %MON seaice_uice_del2             =   3.6173763215729E-06
(PID.TID 0000.0001) %MON seaice_vice_max              =   2.8370093995389E-02
(PID.TID 0000.0001) %MON seaice_vice_min              =  -2.8760827232075E-02
(PID.TID 0000.0001) %MON seaice_vice_mean             =   3.3125948339720E-06
(PID.TID 0000.0001) %MON seaice_vice_sd               =   1.2420924157974E-02
(PID.TID 0000.0001) %MON seaice_vice_del2             =   3.6276834664003E-06
(PID.TID 0000.0001) %MON seaice_area_max              =   1.0000000000000E+00
(PID.TID 0000.0001) %MON seaice_area_min              =   9.9998914219500E-01
(PID.TID 0000.0001) %MON seaice_area_mean             =   9.9999937049205E-01
(PID.TID 0000.0001) %MON seaice_area_sd               =   1.4571809028567E-06
(PID.TID 0000.0001) %MON seaice_area_del2             =   1.8152719976627E-08
(PID.TID 0000.0001) %MON seaice_heff_max              =   3.0999850503894E-01
(PID.TID 0000.0001) %MON seaice_heff_min              =   2.9006039254817E-01
(PID.TID 0000.0001) %MON seaice_heff_mean             =   3.0067126525963E-01
(PID.TID 0000.0001) %MON seaice_heff_sd               =   5.0069252799754E-03
(PID.TID 0000.0001) %MON seaice_heff_del2             =   1.2853738193688E-05
(PID.TID 0000.0001) %MON seaice_hsnow_max             =   0.0000000000000E+00
(PID.TID 0000.0001) %MON seaice_hsnow_min             =   0.0000000000000E+00
(PID.TID 0000.0001) %MON seaice_hsnow_mean            =   0.0000000000000E+00
(PID.TID 0000.0001) %MON seaice_hsnow_sd              =   0.0000000000000E+00
(PID.TID 0000.0001) %MON seaice_hsnow_del2            =   0.0000000000000E+00
(PID.TID 0000.0001) // =======================================================
(PID.TID 0000.0001) // End MONITOR SEAICE statistics
(PID.TID 0000.0001) // =======================================================
 Computing Diagnostic #    163  SIuice       Counter:       1   Parms: UU      M1      
           Vector  Mate for  SIuice       Diagnostic #    164  SIvice   exists 
 Computing Diagnostic #    164  SIvice       Counter:       1   Parms: VV      M1      
           Vector  Mate for  SIvice       Diagnostic #    163  SIuice   exists 
 Computing Diagnostic #    149  SIheff       Counter:       1   Parms: SM      M1      
 Computing Diagnostic #    146  SIarea       Counter:       1   Parms: SM      M1      
 Computing Diagnostic #    228  SIshear      Counter:       1   Parms: SM      M1      
 Computing Diagnostic #    233  SIcohes      Counter:       1   Parms: SM      M1      
 Computing Diagnostic #    221  SIsig1       Counter:       1   Parms: SM      M1      
 Computing Diagnostic #    222  SIsig2       Counter:       1   Parms: SM      M1      
 Computing Diagnostic #    231  SIdamage     Counter:       1   Parms: SM      M1      
 Computing Diagnostic #    165  SItaux       Counter:       1   Parms: UU      U1      
           Vector  Mate for  SItaux       Diagnostic #    166  SItauy   exists 
 Computing Diagnostic #    166  SItauy       Counter:       1   Parms: VV      U1      
           Vector  Mate for  SItauy       Diagnostic #    165  SItaux   exists 
 Computing Diagnostic #    133  EXFuwind     Counter:       1   Parms: UM      U1      
 Computing Diagnostic #    134  EXFvwind     Counter:       1   Parms: VM      U1      
(PID.TID 0000.0001)  S/R SEAICE_KRYLOV: Picard iterate / total, KRYLOVgamma_lin, initial norm =       1   1701 0.10000E+00 0.10809E+00
(PID.TID 0000.0001)  S/R SEAICE_KRYLOV: Picard iterate / total =      1 /   1701, Nb. of FGMRES iterations =      1
(PID.TID 0000.0001)  S/R SEAICE_KRYLOV: Picard iterate / total, KRYLOVgamma_lin, initial norm =       2   1702 0.50000E-01 0.12796E-03
(PID.TID 0000.0001)  S/R SEAICE_KRYLOV: Picard iterate / total =      2 /   1702, Nb. of FGMRES iterations =      1
(PID.TID 0000.0001)  S/R SEAICE_KRYLOV: Picard iterate / total, KRYLOVgamma_lin, initial norm =       3   1703 0.50000E-01 0.29136E-04
(PID.TID 0000.0001)  S/R SEAICE_KRYLOV: Picard iterate / total =      3 /   1703, Nb. of FGMRES iterations =      1
(PID.TID 0000.0001)  S/R SEAICE_KRYLOV: Picard iterate / total, KRYLOVgamma_lin, initial norm =       4   1704 0.33333E-01 0.15503E-04
(PID.TID 0000.0001)  S/R SEAICE_KRYLOV: Picard iterate / total =      4 /   1704, Nb. of FGMRES iterations =      1
(PID.TID 0000.0001)  S/R SEAICE_KRYLOV: Picard iterate / total, KRYLOVgamma_lin, initial norm =       5   1705 0.33333E-01 0.76586E-05
(PID.TID 0000.0001)  S/R SEAICE_KRYLOV: Picard iterate / total =      5 /   1705, Nb. of FGMRES iterations =      1
(PID.TID 0000.0001)  S/R SEAICE_KRYLOV: Picard iterate / total, KRYLOVgamma_lin, initial norm =       6   1706 0.33333E-01 0.38359E-05
(PID.TID 0000.0001)  S/R SEAICE_KRYLOV: Picard iterate / total =      6 /   1706, Nb. of FGMRES iterations =      1
(PID.TID 0000.0001)  S/R SEAICE_KRYLOV: Picard iterate / total, KRYLOVgamma_lin, initial norm =       7   1707 0.33333E-01 0.19175E-05
(PID.TID 0000.0001)  S/R SEAICE_KRYLOV: Picard iterate / total =      7 /   1707, Nb. of FGMRES iterations =      1
(PID.TID 0000.0001)  S/R SEAICE_KRYLOV: Picard iterate / total, KRYLOVgamma_lin, initial norm =       8   1708 0.25000E-01 0.95877E-06
(PID.TID 0000.0001)  S/R SEAICE_KRYLOV: Picard iterate / total =      8 /   1708, Nb. of FGMRES iterations =      1
(PID.TID 0000.0001)  S/R SEAICE_KRYLOV: Picard iterate / total, KRYLOVgamma_lin, initial norm =       9   1709 0.20000E-01 0.47938E-06
(PID.TID 0000.0001)  S/R SEAICE_KRYLOV: Picard iterate / total =      9 /   1709, Nb. of FGMRES iterations =      1
(PID.TID 0000.0001)  S/R SEAICE_KRYLOV: Picard iterate / total, KRYLOVgamma_lin, initial norm =      10   1710 0.12500E-01 0.23969E-06
(PID.TID 0000.0001)  S/R SEAICE_KRYLOV: Picard iterate / total =     10 /   1710, Nb. of FGMRES iterations =      1
(PID.TID 0000.0001)  S/R SEAICE_KRYLOV: Picard iterate / total, KRYLOVgamma_lin, initial norm =      11   1711 0.12500E-01 0.11985E-06
(PID.TID 0000.0001)  S/R SEAICE_KRYLOV: Picard iterate / total =     11 /   1711, Nb. of FGMRES iterations =      1
(PID.TID 0000.0001)  S/R SEAICE_KRYLOV: Picard iterate / total, KRYLOVgamma_lin, initial norm =      12   1712 0.12500E-01 0.59923E-07
(PID.TID 0000.0001)  S/R SEAICE_KRYLOV: Picard iterate / total =     12 /   1712, Nb. of FGMRES iterations =      1
(PID.TID 0000.0001)  S/R SEAICE_KRYLOV: Picard iterate / total, KRYLOVgamma_lin, initial norm =      13   1713 0.12500E-01 0.29961E-07
(PID.TID 0000.0001)  S/R SEAICE_KRYLOV: Picard iterate / total =     13 /   1713, Nb. of FGMRES iterations =      1
(PID.TID 0000.0001)  S/R SEAICE_KRYLOV: Picard iterate / total, KRYLOVgamma_lin, initial norm =      14   1714 0.12500E-01 0.14981E-07
(PID.TID 0000.0001)  S/R SEAICE_KRYLOV: Picard iterate / total =     14 /   1714, Nb. of FGMRES iterations =      1
(PID.TID 0000.0001)  S/R SEAICE_KRYLOV: Picard iterate / total, KRYLOVgamma_lin, initial norm =      15   1715 0.12500E-01 0.74903E-08
(PID.TID 0000.0001)  S/R SEAICE_KRYLOV: Picard iterate / total =     15 /   1715, Nb. of FGMRES iterations =      1
(PID.TID 0000.0001)  S/R SEAICE_KRYLOV: Picard iterate / total, KRYLOVgamma_lin, initial norm =      16   1716 0.12500E-01 0.37452E-08
(PID.TID 0000.0001)  S/R SEAICE_KRYLOV: Picard iterate / total =     16 /   1716, Nb. of FGMRES iterations =      1
(PID.TID 0000.0001)  S/R SEAICE_KRYLOV: Picard iterate / total, KRYLOVgamma_lin, initial norm =      17   1717 0.12500E-01 0.18726E-08
(PID.TID 0000.0001)  S/R SEAICE_KRYLOV: Picard iterate / total =     17 /   1717, Nb. of FGMRES iterations =      1
(PID.TID 0000.0001)  S/R SEAICE_KRYLOV: Picard iterate / total, KRYLOVgamma_lin, initial norm =      18   1718 0.12500E-01 0.93629E-09
(PID.TID 0000.0001)  S/R SEAICE_KRYLOV: Picard iterate / total =     18 /   1718, Nb. of FGMRES iterations =      1
(PID.TID 0000.0001)  S/R SEAICE_KRYLOV: Picard iterate / total, KRYLOVgamma_lin, initial norm =      19   1719 0.12500E-01 0.46815E-09
(PID.TID 0000.0001)  S/R SEAICE_KRYLOV: Picard iterate / total =     19 /   1719, Nb. of FGMRES iterations =      1
(PID.TID 0000.0001)  S/R SEAICE_KRYLOV: Picard iterate / total, KRYLOVgamma_lin, initial norm =      20   1720 0.12500E-01 0.23407E-09
(PID.TID 0000.0001)  S/R SEAICE_KRYLOV: Picard iterate / total =     20 /   1720, Nb. of FGMRES iterations =      1
(PID.TID 0000.0001)  S/R SEAICE_KRYLOV: Picard iterate / total, KRYLOVgamma_lin, initial norm =      21   1721 0.12500E-01 0.11704E-09
(PID.TID 0000.0001)  S/R SEAICE_KRYLOV: Picard iterate / total =     21 /   1721, Nb. of FGMRES iterations =      1
(PID.TID 0000.0001)  S/R SEAICE_KRYLOV: Picard iterate / total, KRYLOVgamma_lin, initial norm =      22   1722 0.12500E-01 0.58518E-10
(PID.TID 0000.0001)  S/R SEAICE_KRYLOV: Picard iterate / total =     22 /   1722, Nb. of FGMRES iterations =      1
(PID.TID 0000.0001)  S/R SEAICE_KRYLOV: Picard iterate / total, KRYLOVgamma_lin, initial norm =      23   1723 0.12500E-01 0.29259E-10
(PID.TID 0000.0001)  S/R SEAICE_KRYLOV: Picard iterate / total =     23 /   1723, Nb. of FGMRES iterations =      1
(PID.TID 0000.0001)  S/R SEAICE_KRYLOV: Picard iterate / total, KRYLOVgamma_lin, initial norm =      24   1724 0.12500E-01 0.14630E-10
(PID.TID 0000.0001)  S/R SEAICE_KRYLOV: Picard iterate / total =     24 /   1724, Nb. of FGMRES iterations =      1
(PID.TID 0000.0001)  S/R SEAICE_KRYLOV: Picard iterate / total, KRYLOVgamma_lin, initial norm =      25   1725 0.12500E-01 0.73148E-11
(PID.TID 0000.0001)  S/R SEAICE_KRYLOV: Picard iterate / total =     25 /   1725, Nb. of FGMRES iterations =      1
(PID.TID 0000.0001)  S/R SEAICE_KRYLOV: Picard iterate / total, KRYLOVgamma_lin, initial norm =      26   1726 0.12500E-01 0.36574E-11
(PID.TID 0000.0001)  S/R SEAICE_KRYLOV: Picard iterate / total =     26 /   1726, Nb. of FGMRES iterations =      1
(PID.TID 0000.0001)  S/R SEAICE_KRYLOV: Picard iterate / total, KRYLOVgamma_lin, initial norm =      27   1727 0.12500E-01 0.18287E-11
(PID.TID 0000.0001)  S/R SEAICE_KRYLOV: Picard iterate / total =     27 /   1727, Nb. of FGMRES iterations =      1
(PID.TID 0000.0001)  S/R SEAICE_KRYLOV: Picard iterate / total, KRYLOVgamma_lin, initial norm =      28   1728 0.12500E-01 0.91435E-12
(PID.TID 0000.0001)  S/R SEAICE_KRYLOV: Picard iterate / total =     28 /   1728, Nb. of FGMRES iterations =      1
(PID.TID 0000.0001)  S/R SEAICE_KRYLOV: Picard iterate / total, KRYLOVgamma_lin, initial norm =      29   1729 0.12500E-01 0.45717E-12
(PID.TID 0000.0001)  S/R SEAICE_KRYLOV: Picard iterate / total =     29 /   1729, Nb. of FGMRES iterations =      1
(PID.TID 0000.0001)  S/R SEAICE_KRYLOV: Picard iterate / total, KRYLOVgamma_lin, initial norm =      30   1730 0.12500E-01 0.22859E-12
(PID.TID 0000.0001)  S/R SEAICE_KRYLOV: Picard iterate / total =     30 /   1730, Nb. of FGMRES iterations =      1
(PID.TID 0000.0001)  S/R SEAICE_KRYLOV: Picard iterate / total, KRYLOVgamma_lin, initial norm =      31   1731 0.12500E-01 0.11429E-12
(PID.TID 0000.0001)  S/R SEAICE_KRYLOV: Picard iterate / total =     31 /   1731, Nb. of FGMRES iterations =      1
(PID.TID 0000.0001)  S/R SEAICE_KRYLOV: Picard iterate / total, KRYLOVgamma_lin, final   norm =      32   1732 0.12500E-01 0.57148E-13
(PID.TID 0000.0001)  // =======================================================
(PID.TID 0000.0001)  // Begin KRYLOV statistics
(PID.TID 0000.0001)  // =======================================================
(PID.TID 0000.0001)  %KRYLOV_MON: time step              =         18
(PID.TID 0000.0001)  %KRYLOV_MON: Nb. of time steps      =          1
(PID.TID 0000.0001)  %KRYLOV_MON: Nb. of Picard steps    =         32
(PID.TID 0000.0001)  %KRYLOV_MON: Nb. of Krylov steps    =         31
(PID.TID 0000.0001)  %KRYLOV_MON: Nb. of Picard failures =          0
(PID.TID 0000.0001)  %KRYLOV_MON: Nb. of Krylov failures =          0
(PID.TID 0000.0001)  // =======================================================
(PID.TID 0000.0001)  // End KRYLOV statistics
(PID.TID 0000.0001)  // =======================================================
(PID.TID 0000.0001)  S/R SEAICE_KRYLOV: Total number FGMRES iterations =     31 in timestep         18
(PID.TID 0000.0001) // =======================================================
(PID.TID 0000.0001) // Begin MONITOR dynamic field statistics
(PID.TID 0000.0001) // =======================================================
(PID.TID 0000.0001) %MON time_tsnumber                =                    18
(PID.TID 0000.0001) %MON time_secondsf                =   4.5000000000000E+01
(PID.TID 0000.0001) %MON dynstat_eta_max              =   0.0000000000000E+00
(PID.TID 0000.0001) %MON dynstat_eta_min              =   0.0000000000000E+00
(PID.TID 0000.0001) %MON dynstat_eta_mean             =   0.0000000000000E+00
(PID.TID 0000.0001) %MON dynstat_eta_sd               =   0.0000000000000E+00
(PID.TID 0000.0001) %MON dynstat_eta_del2             =   0.0000000000000E+00
(PID.TID 0000.0001) %MON dynstat_uvel_max             =   9.8437500000000E-03
(PID.TID 0000.0001) %MON dynstat_uvel_min             =  -9.8437500000000E-03
(PID.TID 0000.0001) %MON dynstat_uvel_mean            =   0.0000000000000E+00
(PID.TID 0000.0001) %MON dynstat_uvel_sd              =   5.7727978755972E-03
(PID.TID 0000.0001) %MON dynstat_uvel_del2            =   1.0089048364799E-20
(PID.TID 0000.0001) %MON dynstat_vvel_max             =   9.8437500000000E-03
(PID.TID 0000.0001) %MON dynstat_vvel_min             =  -9.8437500000000E-03
(PID.TID 0000.0001) %MON dynstat_vvel_mean            =   0.0000000000000E+00
(PID.TID 0000.0001) %MON dynstat_vvel_sd              =   5.7727978755972E-03
(PID.TID 0000.0001) %MON dynstat_vvel_del2            =   1.0089048364799E-20
(PID.TID 0000.0001) %MON dynstat_wvel_max             =   1.1914062500000E-05
(PID.TID 0000.0001) %MON dynstat_wvel_min             =  -1.1914062500000E-05
(PID.TID 0000.0001) %MON dynstat_wvel_mean            =   3.4694469519536E-25
(PID.TID 0000.0001) %MON dynstat_wvel_sd              =   1.7200872247780E-06
(PID.TID 0000.0001) %MON dynstat_wvel_del2            =   2.8187489626940E-08
(PID.TID 0000.0001) %MON dynstat_theta_max            =  -1.6200000000000E+00
(PID.TID 0000.0001) %MON dynstat_theta_min            =  -1.6200000000000E+00
(PID.TID 0000.0001) %MON dynstat_theta_mean           =  -1.6200000000000E+00
(PID.TID 0000.0001) %MON dynstat_theta_sd             =   0.0000000000000E+00
(PID.TID 0000.0001) %MON dynstat_theta_del2           =   0.0000000000000E+00
(PID.TID 0000.0001) %MON dynstat_salt_max             =   3.0000000000000E+01
(PID.TID 0000.0001) %MON dynstat_salt_min             =   3.0000000000000E+01
(PID.TID 0000.0001) %MON dynstat_salt_mean            =   3.0000000000000E+01
(PID.TID 0000.0001) %MON dynstat_salt_sd              =   0.0000000000000E+00
(PID.TID 0000.0001) %MON dynstat_salt_del2            =   0.0000000000000E+00
(PID.TID 0000.0001) %MON trAdv_CFL_u_max              =   3.0761718750000E-06
(PID.TID 0000.0001) %MON trAdv_CFL_v_max              =   3.0761718750000E-06
(PID.TID 0000.0001) %MON trAdv_CFL_w_max              =   2.9785156250000E-06
(PID.TID 0000.0001) %MON advcfl_uvel_max              =   3.0761718750000E-06
(PID.TID 0000.0001) %MON advcfl_vvel_max              =   3.0761718750000E-06
(PID.TID 0000.0001) %MON advcfl_wvel_max              =   5.9570312500000E-06
(PID.TID 0000.0001) %MON advcfl_W_hf_max              =   0.0000000000000E+00
(PID.TID 0000.0001) %MON pe_b_mean                    =   0.0000000000000E+00
(PID.TID 0000.0001) %MON ke_max                       =   9.0844726562500E-05
(PID.TID 0000.0001) %MON ke_mean                      =   3.2804489135742E-05
(PID.TID 0000.0001) %MON ke_vol                       =   2.6214400000000E+12
(PID.TID 0000.0001) %MON vort_r_min                   =  -7.8125000000000E-08
(PID.TID 0000.0001) %MON vort_r_max                   =   1.2304687500000E-06
(PID.TID 0000.0001) %MON vort_a_mean                  =   1.4856000000000E-04
(PID.TID 0000.0001) %MON vort_a_sd                    =   1.5312918562496E-06
(PID.TID 0000.0001) %MON vort_p_mean                  =   1.5552375000000E-04
(PID.TID 0000.0001) %MON vort_p_sd                    =   5.5921473110222E-05
(PID.TID 0000.0001) %MON surfExpan_theta_mean         =   0.0000000000000E+00
(PID.TID 0000.0001) %MON surfExpan_salt_mean          =   1.3877787807814E-23
(PID.TID 0000.0001) // =======================================================
(PID.TID 0000.0001) // End MONITOR dynamic field statistics
(PID.TID 0000.0001) // =======================================================
(PID.TID 0000.0001) // =======================================================
(PID.TID 0000.0001) // Begin MONITOR SEAICE statistics
(PID.TID 0000.0001) // =======================================================
(PID.TID 0000.0001) %MON seaice_tsnumber              =                    18
(PID.TID 0000.0001) %MON seaice_time_sec              =   4.5000000000000E+01
(PID.TID 0000.0001) %MON seaice_uice_max              =   3.0781404070626E-02
(PID.TID 0000.0001) %MON seaice_uice_min              =  -3.1297847094816E-02
(PID.TID 0000.0001) %MON seaice_uice_mean             =  -8.2273380866860E-07
(PID.TID 0000.0001) %MON seaice_uice_sd               =   1.3193551122002E-02
(PID.TID 0000.0001) %MON seaice_uice_del2             =   3.8290399342555E-06
(PID.TID 0000.0001) %MON seaice_vice_max              =   3.0006364438671E-02
(PID.TID 0000.0001) %MON seaice_vice_min              =  -3.0426506098696E-02
(PID.TID 0000.0001) %MON seaice_vice_mean             =   3.4969136728792E-06
(PID.TID 0000.0001) %MON seaice_vice_sd               =   1.3132115552662E-02
(PID.TID 0000.0001) %MON seaice_vice_del2             =   3.8368575200519E-06
(PID.TID 0000.0001) %MON seaice_area_max              =   1.0000000000000E+00
(PID.TID 0000.0001) %MON seaice_area_min              =   9.9998783902243E-01
(PID.TID 0000.0001) %MON seaice_area_mean             =   9.9999929754104E-01
(PID.TID 0000.0001) %MON seaice_area_sd               =   1.6319230241138E-06
(PID.TID 0000.0001) %MON seaice_area_del2             =   2.0422978941087E-08
(PID.TID 0000.0001) %MON seaice_heff_max              =   3.0999848539078E-01
(PID.TID 0000.0001) %MON seaice_heff_min              =   2.9006037237161E-01
(PID.TID 0000.0001) %MON seaice_heff_mean             =   3.0067126525963E-01
(PID.TID 0000.0001) %MON seaice_heff_sd               =   5.0069254117243E-03
(PID.TID 0000.0001) %MON seaice_heff_del2             =   1.2853737018764E-05
(PID.TID 0000.0001) %MON seaice_hsnow_max             =   0.0000000000000E+00
(PID.TID 0000.0001) %MON seaice_hsnow_min             =   0.0000000000000E+00
(PID.TID 0000.0001) %MON seaice_hsnow_mean            =   0.0000000000000E+00
(PID.TID 0000.0001) %MON seaice_hsnow_sd              =   0.0000000000000E+00
(PID.TID 0000.0001) %MON seaice_hsnow_del2            =   0.0000000000000E+00
(PID.TID 0000.0001) // =======================================================
(PID.TID 0000.0001) // End MONITOR SEAICE statistics
(PID.TID 0000.0001) // =======================================================
 Computing Diagnostic #    163  SIuice       Counter:       1   Parms: UU      M1      
           Vector  Mate for  SIuice       Diagnostic #    164  SIvice   exists 
 Computing Diagnostic #    164  SIvice       Counter:       1   Parms: VV      M1      
           Vector  Mate for  SIvice       Diagnostic #    163  SIuice   exists 
 Computing Diagnostic #    149  SIheff       Counter:       1   Parms: SM      M1      
 Computing Diagnostic #    146  SIarea       Counter:       1   Parms: SM      M1      
 Computing Diagnostic #    228  SIshear      Counter:       1   Parms: SM      M1      
 Computing Diagnostic #    233  SIcohes      Counter:       1   Parms: SM      M1      
 Computing Diagnostic #    221  SIsig1       Counter:       1   Parms: SM      M1      
 Computing Diagnostic #    222  SIsig2       Counter:       1   Parms: SM      M1      
 Computing Diagnostic #    231  SIdamage     Counter:       1   Parms: SM      M1      
 Computing Diagnostic #    165  SItaux       Counter:       1   Parms: UU      U1      
           Vector  Mate for  SItaux       Diagnostic #    166  SItauy   exists 
 Computing Diagnostic #    166  SItauy       Counter:       1   Parms: VV      U1      
           Vector  Mate for  SItauy       Diagnostic #    165  SItaux   exists 
 Computing Diagnostic #    133  EXFuwind     Counter:       1   Parms: UM      U1      
 Computing Diagnostic #    134  EXFvwind     Counter:       1   Parms: VM      U1      
(PID.TID 0000.0001)  S/R SEAICE_KRYLOV: Picard iterate / total, KRYLOVgamma_lin, initial norm =       1   1801 0.10000E+00 0.10780E+00
(PID.TID 0000.0001)  S/R SEAICE_KRYLOV: Picard iterate / total =      1 /   1801, Nb. of FGMRES iterations =      1
(PID.TID 0000.0001)  S/R SEAICE_KRYLOV: Picard iterate / total, KRYLOVgamma_lin, initial norm =       2   1802 0.50000E-01 0.12141E-03
(PID.TID 0000.0001)  S/R SEAICE_KRYLOV: Picard iterate / total =      2 /   1802, Nb. of FGMRES iterations =      1
(PID.TID 0000.0001)  S/R SEAICE_KRYLOV: Picard iterate / total, KRYLOVgamma_lin, initial norm =       3   1803 0.50000E-01 0.28475E-04
(PID.TID 0000.0001)  S/R SEAICE_KRYLOV: Picard iterate / total =      3 /   1803, Nb. of FGMRES iterations =      1
(PID.TID 0000.0001)  S/R SEAICE_KRYLOV: Picard iterate / total, KRYLOVgamma_lin, initial norm =       4   1804 0.33333E-01 0.15075E-04
(PID.TID 0000.0001)  S/R SEAICE_KRYLOV: Picard iterate / total =      4 /   1804, Nb. of FGMRES iterations =      1
(PID.TID 0000.0001)  S/R SEAICE_KRYLOV: Picard iterate / total, KRYLOVgamma_lin, initial norm =       5   1805 0.33333E-01 0.74591E-05
(PID.TID 0000.0001)  S/R SEAICE_KRYLOV: Picard iterate / total =      5 /   1805, Nb. of FGMRES iterations =      1
(PID.TID 0000.0001)  S/R SEAICE_KRYLOV: Picard iterate / total, KRYLOVgamma_lin, initial norm =       6   1806 0.33333E-01 0.37350E-05
(PID.TID 0000.0001)  S/R SEAICE_KRYLOV: Picard iterate / total =      6 /   1806, Nb. of FGMRES iterations =      1
(PID.TID 0000.0001)  S/R SEAICE_KRYLOV: Picard iterate / total, KRYLOVgamma_lin, initial norm =       7   1807 0.33333E-01 0.18671E-05
(PID.TID 0000.0001)  S/R SEAICE_KRYLOV: Picard iterate / total =      7 /   1807, Nb. of FGMRES iterations =      1
(PID.TID 0000.0001)  S/R SEAICE_KRYLOV: Picard iterate / total, KRYLOVgamma_lin, initial norm =       8   1808 0.25000E-01 0.93357E-06
(PID.TID 0000.0001)  S/R SEAICE_KRYLOV: Picard iterate / total =      8 /   1808, Nb. of FGMRES iterations =      1
(PID.TID 0000.0001)  S/R SEAICE_KRYLOV: Picard iterate / total, KRYLOVgamma_lin, initial norm =       9   1809 0.20000E-01 0.46678E-06
(PID.TID 0000.0001)  S/R SEAICE_KRYLOV: Picard iterate / total =      9 /   1809, Nb. of FGMRES iterations =      1
(PID.TID 0000.0001)  S/R SEAICE_KRYLOV: Picard iterate / total, KRYLOVgamma_lin, initial norm =      10   1810 0.12500E-01 0.23339E-06
(PID.TID 0000.0001)  S/R SEAICE_KRYLOV: Picard iterate / total =     10 /   1810, Nb. of FGMRES iterations =      1
(PID.TID 0000.0001)  S/R SEAICE_KRYLOV: Picard iterate / total, KRYLOVgamma_lin, initial norm =      11   1811 0.12500E-01 0.11670E-06
(PID.TID 0000.0001)  S/R SEAICE_KRYLOV: Picard iterate / total =     11 /   1811, Nb. of FGMRES iterations =      1
(PID.TID 0000.0001)  S/R SEAICE_KRYLOV: Picard iterate / total, KRYLOVgamma_lin, initial norm =      12   1812 0.12500E-01 0.58348E-07
(PID.TID 0000.0001)  S/R SEAICE_KRYLOV: Picard iterate / total =     12 /   1812, Nb. of FGMRES iterations =      1
(PID.TID 0000.0001)  S/R SEAICE_KRYLOV: Picard iterate / total, KRYLOVgamma_lin, initial norm =      13   1813 0.12500E-01 0.29174E-07
(PID.TID 0000.0001)  S/R SEAICE_KRYLOV: Picard iterate / total =     13 /   1813, Nb. of FGMRES iterations =      1
(PID.TID 0000.0001)  S/R SEAICE_KRYLOV: Picard iterate / total, KRYLOVgamma_lin, initial norm =      14   1814 0.12500E-01 0.14587E-07
(PID.TID 0000.0001)  S/R SEAICE_KRYLOV: Picard iterate / total =     14 /   1814, Nb. of FGMRES iterations =      1
(PID.TID 0000.0001)  S/R SEAICE_KRYLOV: Picard iterate / total, KRYLOVgamma_lin, initial norm =      15   1815 0.12500E-01 0.72935E-08
(PID.TID 0000.0001)  S/R SEAICE_KRYLOV: Picard iterate / total =     15 /   1815, Nb. of FGMRES iterations =      1
(PID.TID 0000.0001)  S/R SEAICE_KRYLOV: Picard iterate / total, KRYLOVgamma_lin, initial norm =      16   1816 0.12500E-01 0.36467E-08
(PID.TID 0000.0001)  S/R SEAICE_KRYLOV: Picard iterate / total =     16 /   1816, Nb. of FGMRES iterations =      1
(PID.TID 0000.0001)  S/R SEAICE_KRYLOV: Picard iterate / total, KRYLOVgamma_lin, initial norm =      17   1817 0.12500E-01 0.18234E-08
(PID.TID 0000.0001)  S/R SEAICE_KRYLOV: Picard iterate / total =     17 /   1817, Nb. of FGMRES iterations =      1
(PID.TID 0000.0001)  S/R SEAICE_KRYLOV: Picard iterate / total, KRYLOVgamma_lin, initial norm =      18   1818 0.12500E-01 0.91169E-09
(PID.TID 0000.0001)  S/R SEAICE_KRYLOV: Picard iterate / total =     18 /   1818, Nb. of FGMRES iterations =      1
(PID.TID 0000.0001)  S/R SEAICE_KRYLOV: Picard iterate / total, KRYLOVgamma_lin, initial norm =      19   1819 0.12500E-01 0.45584E-09
(PID.TID 0000.0001)  S/R SEAICE_KRYLOV: Picard iterate / total =     19 /   1819, Nb. of FGMRES iterations =      1
(PID.TID 0000.0001)  S/R SEAICE_KRYLOV: Picard iterate / total, KRYLOVgamma_lin, initial norm =      20   1820 0.12500E-01 0.22792E-09
(PID.TID 0000.0001)  S/R SEAICE_KRYLOV: Picard iterate / total =     20 /   1820, Nb. of FGMRES iterations =      1
(PID.TID 0000.0001)  S/R SEAICE_KRYLOV: Picard iterate / total, KRYLOVgamma_lin, initial norm =      21   1821 0.12500E-01 0.11396E-09
(PID.TID 0000.0001)  S/R SEAICE_KRYLOV: Picard iterate / total =     21 /   1821, Nb. of FGMRES iterations =      1
(PID.TID 0000.0001)  S/R SEAICE_KRYLOV: Picard iterate / total, KRYLOVgamma_lin, initial norm =      22   1822 0.12500E-01 0.56980E-10
(PID.TID 0000.0001)  S/R SEAICE_KRYLOV: Picard iterate / total =     22 /   1822, Nb. of FGMRES iterations =      1
(PID.TID 0000.0001)  S/R SEAICE_KRYLOV: Picard iterate / total, KRYLOVgamma_lin, initial norm =      23   1823 0.12500E-01 0.28490E-10
(PID.TID 0000.0001)  S/R SEAICE_KRYLOV: Picard iterate / total =     23 /   1823, Nb. of FGMRES iterations =      1
(PID.TID 0000.0001)  S/R SEAICE_KRYLOV: Picard iterate / total, KRYLOVgamma_lin, initial norm =      24   1824 0.12500E-01 0.14245E-10
(PID.TID 0000.0001)  S/R SEAICE_KRYLOV: Picard iterate / total =     24 /   1824, Nb. of FGMRES iterations =      1
(PID.TID 0000.0001)  S/R SEAICE_KRYLOV: Picard iterate / total, KRYLOVgamma_lin, initial norm =      25   1825 0.12500E-01 0.71225E-11
(PID.TID 0000.0001)  S/R SEAICE_KRYLOV: Picard iterate / total =     25 /   1825, Nb. of FGMRES iterations =      1
(PID.TID 0000.0001)  S/R SEAICE_KRYLOV: Picard iterate / total, KRYLOVgamma_lin, initial norm =      26   1826 0.12500E-01 0.35613E-11
(PID.TID 0000.0001)  S/R SEAICE_KRYLOV: Picard iterate / total =     26 /   1826, Nb. of FGMRES iterations =      1
(PID.TID 0000.0001)  S/R SEAICE_KRYLOV: Picard iterate / total, KRYLOVgamma_lin, initial norm =      27   1827 0.12500E-01 0.17806E-11
(PID.TID 0000.0001)  S/R SEAICE_KRYLOV: Picard iterate / total =     27 /   1827, Nb. of FGMRES iterations =      1
(PID.TID 0000.0001)  S/R SEAICE_KRYLOV: Picard iterate / total, KRYLOVgamma_lin, initial norm =      28   1828 0.12500E-01 0.89032E-12
(PID.TID 0000.0001)  S/R SEAICE_KRYLOV: Picard iterate / total =     28 /   1828, Nb. of FGMRES iterations =      1
(PID.TID 0000.0001)  S/R SEAICE_KRYLOV: Picard iterate / total, KRYLOVgamma_lin, initial norm =      29   1829 0.12500E-01 0.44516E-12
(PID.TID 0000.0001)  S/R SEAICE_KRYLOV: Picard iterate / total =     29 /   1829, Nb. of FGMRES iterations =      1
(PID.TID 0000.0001)  S/R SEAICE_KRYLOV: Picard iterate / total, KRYLOVgamma_lin, initial norm =      30   1830 0.12500E-01 0.22258E-12
(PID.TID 0000.0001)  S/R SEAICE_KRYLOV: Picard iterate / total =     30 /   1830, Nb. of FGMRES iterations =      1
(PID.TID 0000.0001)  S/R SEAICE_KRYLOV: Picard iterate / total, KRYLOVgamma_lin, initial norm =      31   1831 0.12500E-01 0.11129E-12
(PID.TID 0000.0001)  S/R SEAICE_KRYLOV: Picard iterate / total =     31 /   1831, Nb. of FGMRES iterations =      1
(PID.TID 0000.0001)  S/R SEAICE_KRYLOV: Picard iterate / total, KRYLOVgamma_lin, final   norm =      32   1832 0.12500E-01 0.55648E-13
(PID.TID 0000.0001)  // =======================================================
(PID.TID 0000.0001)  // Begin KRYLOV statistics
(PID.TID 0000.0001)  // =======================================================
(PID.TID 0000.0001)  %KRYLOV_MON: time step              =         19
(PID.TID 0000.0001)  %KRYLOV_MON: Nb. of time steps      =          1
(PID.TID 0000.0001)  %KRYLOV_MON: Nb. of Picard steps    =         32
(PID.TID 0000.0001)  %KRYLOV_MON: Nb. of Krylov steps    =         31
(PID.TID 0000.0001)  %KRYLOV_MON: Nb. of Picard failures =          0
(PID.TID 0000.0001)  %KRYLOV_MON: Nb. of Krylov failures =          0
(PID.TID 0000.0001)  // =======================================================
(PID.TID 0000.0001)  // End KRYLOV statistics
(PID.TID 0000.0001)  // =======================================================
(PID.TID 0000.0001)  S/R SEAICE_KRYLOV: Total number FGMRES iterations =     31 in timestep         19
(PID.TID 0000.0001) // =======================================================
(PID.TID 0000.0001) // Begin MONITOR dynamic field statistics
(PID.TID 0000.0001) // =======================================================
(PID.TID 0000.0001) %MON time_tsnumber                =                    19
(PID.TID 0000.0001) %MON time_secondsf                =   4.7500000000000E+01
(PID.TID 0000.0001) %MON dynstat_eta_max              =   0.0000000000000E+00
(PID.TID 0000.0001) %MON dynstat_eta_min              =   0.0000000000000E+00
(PID.TID 0000.0001) %MON dynstat_eta_mean             =   0.0000000000000E+00
(PID.TID 0000.0001) %MON dynstat_eta_sd               =   0.0000000000000E+00
(PID.TID 0000.0001) %MON dynstat_eta_del2             =   0.0000000000000E+00
(PID.TID 0000.0001) %MON dynstat_uvel_max             =   9.8437500000000E-03
(PID.TID 0000.0001) %MON dynstat_uvel_min             =  -9.8437500000000E-03
(PID.TID 0000.0001) %MON dynstat_uvel_mean            =   0.0000000000000E+00
(PID.TID 0000.0001) %MON dynstat_uvel_sd              =   5.7727978755972E-03
(PID.TID 0000.0001) %MON dynstat_uvel_del2            =   1.0089048364799E-20
(PID.TID 0000.0001) %MON dynstat_vvel_max             =   9.8437500000000E-03
(PID.TID 0000.0001) %MON dynstat_vvel_min             =  -9.8437500000000E-03
(PID.TID 0000.0001) %MON dynstat_vvel_mean            =   0.0000000000000E+00
(PID.TID 0000.0001) %MON dynstat_vvel_sd              =   5.7727978755972E-03
(PID.TID 0000.0001) %MON dynstat_vvel_del2            =   1.0089048364799E-20
(PID.TID 0000.0001) %MON dynstat_wvel_max             =   1.1914062500000E-05
(PID.TID 0000.0001) %MON dynstat_wvel_min             =  -1.1914062500000E-05
(PID.TID 0000.0001) %MON dynstat_wvel_mean            =   3.4694469519536E-25
(PID.TID 0000.0001) %MON dynstat_wvel_sd              =   1.7200872247780E-06
(PID.TID 0000.0001) %MON dynstat_wvel_del2            =   2.8187489626940E-08
(PID.TID 0000.0001) %MON dynstat_theta_max            =  -1.6200000000000E+00
(PID.TID 0000.0001) %MON dynstat_theta_min            =  -1.6200000000000E+00
(PID.TID 0000.0001) %MON dynstat_theta_mean           =  -1.6200000000000E+00
(PID.TID 0000.0001) %MON dynstat_theta_sd             =   0.0000000000000E+00
(PID.TID 0000.0001) %MON dynstat_theta_del2           =   0.0000000000000E+00
(PID.TID 0000.0001) %MON dynstat_salt_max             =   3.0000000000000E+01
(PID.TID 0000.0001) %MON dynstat_salt_min             =   3.0000000000000E+01
(PID.TID 0000.0001) %MON dynstat_salt_mean            =   3.0000000000000E+01
(PID.TID 0000.0001) %MON dynstat_salt_sd              =   0.0000000000000E+00
(PID.TID 0000.0001) %MON dynstat_salt_del2            =   0.0000000000000E+00
(PID.TID 0000.0001) %MON trAdv_CFL_u_max              =   3.0761718750000E-06
(PID.TID 0000.0001) %MON trAdv_CFL_v_max              =   3.0761718750000E-06
(PID.TID 0000.0001) %MON trAdv_CFL_w_max              =   2.9785156250000E-06
(PID.TID 0000.0001) %MON advcfl_uvel_max              =   3.0761718750000E-06
(PID.TID 0000.0001) %MON advcfl_vvel_max              =   3.0761718750000E-06
(PID.TID 0000.0001) %MON advcfl_wvel_max              =   5.9570312500000E-06
(PID.TID 0000.0001) %MON advcfl_W_hf_max              =   0.0000000000000E+00
(PID.TID 0000.0001) %MON pe_b_mean                    =   0.0000000000000E+00
(PID.TID 0000.0001) %MON ke_max                       =   9.0844726562500E-05
(PID.TID 0000.0001) %MON ke_mean                      =   3.2804489135742E-05
(PID.TID 0000.0001) %MON ke_vol                       =   2.6214400000000E+12
(PID.TID 0000.0001) %MON vort_r_min                   =  -7.8125000000000E-08
(PID.TID 0000.0001) %MON vort_r_max                   =   1.2304687500000E-06
(PID.TID 0000.0001) %MON vort_a_mean                  =   1.4856000000000E-04
(PID.TID 0000.0001) %MON vort_a_sd                    =   1.5312918562496E-06
(PID.TID 0000.0001) %MON vort_p_mean                  =   1.5552375000000E-04
(PID.TID 0000.0001) %MON vort_p_sd                    =   5.5921473110222E-05
(PID.TID 0000.0001) %MON surfExpan_theta_mean         =   0.0000000000000E+00
(PID.TID 0000.0001) %MON surfExpan_salt_mean          =   1.3877787807814E-23
(PID.TID 0000.0001) // =======================================================
(PID.TID 0000.0001) // End MONITOR dynamic field statistics
(PID.TID 0000.0001) // =======================================================
(PID.TID 0000.0001) // =======================================================
(PID.TID 0000.0001) // Begin MONITOR SEAICE statistics
(PID.TID 0000.0001) // =======================================================
(PID.TID 0000.0001) %MON seaice_tsnumber              =                    19
(PID.TID 0000.0001) %MON seaice_time_sec              =   4.7500000000000E+01
(PID.TID 0000.0001) %MON seaice_uice_max              =   3.2466928263772E-02
(PID.TID 0000.0001) %MON seaice_uice_min              =  -3.2996534982590E-02
(PID.TID 0000.0001) %MON seaice_uice_mean             =  -8.7855835350605E-07
(PID.TID 0000.0001) %MON seaice_uice_sd               =   1.3905905389916E-02
(PID.TID 0000.0001) %MON seaice_uice_del2             =   4.0389692475429E-06
(PID.TID 0000.0001) %MON seaice_vice_max              =   3.1639457199062E-02
(PID.TID 0000.0001) %MON seaice_vice_min              =  -3.2089575997337E-02
(PID.TID 0000.0001) %MON seaice_vice_mean             =   3.6778414022002E-06
(PID.TID 0000.0001) %MON seaice_vice_sd               =   1.3841332436684E-02
(PID.TID 0000.0001) %MON seaice_vice_del2             =   4.0472345382725E-06
(PID.TID 0000.0001) %MON seaice_area_max              =   1.0000000000000E+00
(PID.TID 0000.0001) %MON seaice_area_min              =   9.9998646097592E-01
(PID.TID 0000.0001) %MON seaice_area_mean             =   9.9999922068124E-01
(PID.TID 0000.0001) %MON seaice_area_sd               =   1.8167377075375E-06
(PID.TID 0000.0001) %MON seaice_area_del2             =   2.2832374941326E-08
(PID.TID 0000.0001) %MON seaice_heff_max              =   3.0999846466056E-01
(PID.TID 0000.0001) %MON seaice_heff_min              =   2.9006035110624E-01
(PID.TID 0000.0001) %MON seaice_heff_mean             =   3.0067126525963E-01
(PID.TID 0000.0001) %MON seaice_heff_sd               =   5.0069254983374E-03
(PID.TID 0000.0001) %MON seaice_heff_del2             =   1.2853735835486E-05
(PID.TID 0000.0001) %MON seaice_hsnow_max             =   0.0000000000000E+00
(PID.TID 0000.0001) %MON seaice_hsnow_min             =   0.0000000000000E+00
(PID.TID 0000.0001) %MON seaice_hsnow_mean            =   0.0000000000000E+00
(PID.TID 0000.0001) %MON seaice_hsnow_sd              =   0.0000000000000E+00
(PID.TID 0000.0001) %MON seaice_hsnow_del2            =   0.0000000000000E+00
(PID.TID 0000.0001) // =======================================================
(PID.TID 0000.0001) // End MONITOR SEAICE statistics
(PID.TID 0000.0001) // =======================================================
 Computing Diagnostic #    163  SIuice       Counter:       1   Parms: UU      M1      
           Vector  Mate for  SIuice       Diagnostic #    164  SIvice   exists 
 Computing Diagnostic #    164  SIvice       Counter:       1   Parms: VV      M1      
           Vector  Mate for  SIvice       Diagnostic #    163  SIuice   exists 
 Computing Diagnostic #    149  SIheff       Counter:       1   Parms: SM      M1      
 Computing Diagnostic #    146  SIarea       Counter:       1   Parms: SM      M1      
 Computing Diagnostic #    228  SIshear      Counter:       1   Parms: SM      M1      
 Computing Diagnostic #    233  SIcohes      Counter:       1   Parms: SM      M1      
 Computing Diagnostic #    221  SIsig1       Counter:       1   Parms: SM      M1      
 Computing Diagnostic #    222  SIsig2       Counter:       1   Parms: SM      M1      
 Computing Diagnostic #    231  SIdamage     Counter:       1   Parms: SM      M1      
 Computing Diagnostic #    165  SItaux       Counter:       1   Parms: UU      U1      
           Vector  Mate for  SItaux       Diagnostic #    166  SItauy   exists 
 Computing Diagnostic #    166  SItauy       Counter:       1   Parms: VV      U1      
           Vector  Mate for  SItauy       Diagnostic #    165  SItaux   exists 
 Computing Diagnostic #    133  EXFuwind     Counter:       1   Parms: UM      U1      
 Computing Diagnostic #    134  EXFvwind     Counter:       1   Parms: VM      U1      
(PID.TID 0000.0001)  S/R SEAICE_KRYLOV: Picard iterate / total, KRYLOVgamma_lin, initial norm =       1   1901 0.10000E+00 0.10751E+00
(PID.TID 0000.0001)  S/R SEAICE_KRYLOV: Picard iterate / total =      1 /   1901, Nb. of FGMRES iterations =      1
(PID.TID 0000.0001)  S/R SEAICE_KRYLOV: Picard iterate / total, KRYLOVgamma_lin, initial norm =       2   1902 0.50000E-01 0.11646E-03
(PID.TID 0000.0001)  S/R SEAICE_KRYLOV: Picard iterate / total =      2 /   1902, Nb. of FGMRES iterations =      1
(PID.TID 0000.0001)  S/R SEAICE_KRYLOV: Picard iterate / total, KRYLOVgamma_lin, initial norm =       3   1903 0.50000E-01 0.29446E-04
(PID.TID 0000.0001)  S/R SEAICE_KRYLOV: Picard iterate / total =      3 /   1903, Nb. of FGMRES iterations =      1
(PID.TID 0000.0001)  S/R SEAICE_KRYLOV: Picard iterate / total, KRYLOVgamma_lin, initial norm =       4   1904 0.33333E-01 0.15425E-04
(PID.TID 0000.0001)  S/R SEAICE_KRYLOV: Picard iterate / total =      4 /   1904, Nb. of FGMRES iterations =      1
(PID.TID 0000.0001)  S/R SEAICE_KRYLOV: Picard iterate / total, KRYLOVgamma_lin, initial norm =       5   1905 0.33333E-01 0.76492E-05
(PID.TID 0000.0001)  S/R SEAICE_KRYLOV: Picard iterate / total =      5 /   1905, Nb. of FGMRES iterations =      1
(PID.TID 0000.0001)  S/R SEAICE_KRYLOV: Picard iterate / total, KRYLOVgamma_lin, initial norm =       6   1906 0.33333E-01 0.38288E-05
(PID.TID 0000.0001)  S/R SEAICE_KRYLOV: Picard iterate / total =      6 /   1906, Nb. of FGMRES iterations =      1
(PID.TID 0000.0001)  S/R SEAICE_KRYLOV: Picard iterate / total, KRYLOVgamma_lin, initial norm =       7   1907 0.33333E-01 0.19141E-05
(PID.TID 0000.0001)  S/R SEAICE_KRYLOV: Picard iterate / total =      7 /   1907, Nb. of FGMRES iterations =      1
(PID.TID 0000.0001)  S/R SEAICE_KRYLOV: Picard iterate / total, KRYLOVgamma_lin, initial norm =       8   1908 0.25000E-01 0.95707E-06
(PID.TID 0000.0001)  S/R SEAICE_KRYLOV: Picard iterate / total =      8 /   1908, Nb. of FGMRES iterations =      1
(PID.TID 0000.0001)  S/R SEAICE_KRYLOV: Picard iterate / total, KRYLOVgamma_lin, initial norm =       9   1909 0.20000E-01 0.47854E-06
(PID.TID 0000.0001)  S/R SEAICE_KRYLOV: Picard iterate / total =      9 /   1909, Nb. of FGMRES iterations =      1
(PID.TID 0000.0001)  S/R SEAICE_KRYLOV: Picard iterate / total, KRYLOVgamma_lin, initial norm =      10   1910 0.12500E-01 0.23927E-06
(PID.TID 0000.0001)  S/R SEAICE_KRYLOV: Picard iterate / total =     10 /   1910, Nb. of FGMRES iterations =      1
(PID.TID 0000.0001)  S/R SEAICE_KRYLOV: Picard iterate / total, KRYLOVgamma_lin, initial norm =      11   1911 0.12500E-01 0.11963E-06
(PID.TID 0000.0001)  S/R SEAICE_KRYLOV: Picard iterate / total =     11 /   1911, Nb. of FGMRES iterations =      1
(PID.TID 0000.0001)  S/R SEAICE_KRYLOV: Picard iterate / total, KRYLOVgamma_lin, initial norm =      12   1912 0.12500E-01 0.59817E-07
(PID.TID 0000.0001)  S/R SEAICE_KRYLOV: Picard iterate / total =     12 /   1912, Nb. of FGMRES iterations =      1
(PID.TID 0000.0001)  S/R SEAICE_KRYLOV: Picard iterate / total, KRYLOVgamma_lin, initial norm =      13   1913 0.12500E-01 0.29908E-07
(PID.TID 0000.0001)  S/R SEAICE_KRYLOV: Picard iterate / total =     13 /   1913, Nb. of FGMRES iterations =      1
(PID.TID 0000.0001)  S/R SEAICE_KRYLOV: Picard iterate / total, KRYLOVgamma_lin, initial norm =      14   1914 0.12500E-01 0.14954E-07
(PID.TID 0000.0001)  S/R SEAICE_KRYLOV: Picard iterate / total =     14 /   1914, Nb. of FGMRES iterations =      1
(PID.TID 0000.0001)  S/R SEAICE_KRYLOV: Picard iterate / total, KRYLOVgamma_lin, initial norm =      15   1915 0.12500E-01 0.74771E-08
(PID.TID 0000.0001)  S/R SEAICE_KRYLOV: Picard iterate / total =     15 /   1915, Nb. of FGMRES iterations =      1
(PID.TID 0000.0001)  S/R SEAICE_KRYLOV: Picard iterate / total, KRYLOVgamma_lin, initial norm =      16   1916 0.12500E-01 0.37386E-08
(PID.TID 0000.0001)  S/R SEAICE_KRYLOV: Picard iterate / total =     16 /   1916, Nb. of FGMRES iterations =      1
(PID.TID 0000.0001)  S/R SEAICE_KRYLOV: Picard iterate / total, KRYLOVgamma_lin, initial norm =      17   1917 0.12500E-01 0.18693E-08
(PID.TID 0000.0001)  S/R SEAICE_KRYLOV: Picard iterate / total =     17 /   1917, Nb. of FGMRES iterations =      1
(PID.TID 0000.0001)  S/R SEAICE_KRYLOV: Picard iterate / total, KRYLOVgamma_lin, initial norm =      18   1918 0.12500E-01 0.93464E-09
(PID.TID 0000.0001)  S/R SEAICE_KRYLOV: Picard iterate / total =     18 /   1918, Nb. of FGMRES iterations =      1
(PID.TID 0000.0001)  S/R SEAICE_KRYLOV: Picard iterate / total, KRYLOVgamma_lin, initial norm =      19   1919 0.12500E-01 0.46732E-09
(PID.TID 0000.0001)  S/R SEAICE_KRYLOV: Picard iterate / total =     19 /   1919, Nb. of FGMRES iterations =      1
(PID.TID 0000.0001)  S/R SEAICE_KRYLOV: Picard iterate / total, KRYLOVgamma_lin, initial norm =      20   1920 0.12500E-01 0.23366E-09
(PID.TID 0000.0001)  S/R SEAICE_KRYLOV: Picard iterate / total =     20 /   1920, Nb. of FGMRES iterations =      1
(PID.TID 0000.0001)  S/R SEAICE_KRYLOV: Picard iterate / total, KRYLOVgamma_lin, initial norm =      21   1921 0.12500E-01 0.11683E-09
(PID.TID 0000.0001)  S/R SEAICE_KRYLOV: Picard iterate / total =     21 /   1921, Nb. of FGMRES iterations =      1
(PID.TID 0000.0001)  S/R SEAICE_KRYLOV: Picard iterate / total, KRYLOVgamma_lin, initial norm =      22   1922 0.12500E-01 0.58415E-10
(PID.TID 0000.0001)  S/R SEAICE_KRYLOV: Picard iterate / total =     22 /   1922, Nb. of FGMRES iterations =      1
(PID.TID 0000.0001)  S/R SEAICE_KRYLOV: Picard iterate / total, KRYLOVgamma_lin, initial norm =      23   1923 0.12500E-01 0.29207E-10
(PID.TID 0000.0001)  S/R SEAICE_KRYLOV: Picard iterate / total =     23 /   1923, Nb. of FGMRES iterations =      1
(PID.TID 0000.0001)  S/R SEAICE_KRYLOV: Picard iterate / total, KRYLOVgamma_lin, initial norm =      24   1924 0.12500E-01 0.14604E-10
(PID.TID 0000.0001)  S/R SEAICE_KRYLOV: Picard iterate / total =     24 /   1924, Nb. of FGMRES iterations =      1
(PID.TID 0000.0001)  S/R SEAICE_KRYLOV: Picard iterate / total, KRYLOVgamma_lin, initial norm =      25   1925 0.12500E-01 0.73019E-11
(PID.TID 0000.0001)  S/R SEAICE_KRYLOV: Picard iterate / total =     25 /   1925, Nb. of FGMRES iterations =      1
(PID.TID 0000.0001)  S/R SEAICE_KRYLOV: Picard iterate / total, KRYLOVgamma_lin, initial norm =      26   1926 0.12500E-01 0.36509E-11
(PID.TID 0000.0001)  S/R SEAICE_KRYLOV: Picard iterate / total =     26 /   1926, Nb. of FGMRES iterations =      1
(PID.TID 0000.0001)  S/R SEAICE_KRYLOV: Picard iterate / total, KRYLOVgamma_lin, initial norm =      27   1927 0.12500E-01 0.18255E-11
(PID.TID 0000.0001)  S/R SEAICE_KRYLOV: Picard iterate / total =     27 /   1927, Nb. of FGMRES iterations =      1
(PID.TID 0000.0001)  S/R SEAICE_KRYLOV: Picard iterate / total, KRYLOVgamma_lin, initial norm =      28   1928 0.12500E-01 0.91273E-12
(PID.TID 0000.0001)  S/R SEAICE_KRYLOV: Picard iterate / total =     28 /   1928, Nb. of FGMRES iterations =      1
(PID.TID 0000.0001)  S/R SEAICE_KRYLOV: Picard iterate / total, KRYLOVgamma_lin, initial norm =      29   1929 0.12500E-01 0.45636E-12
(PID.TID 0000.0001)  S/R SEAICE_KRYLOV: Picard iterate / total =     29 /   1929, Nb. of FGMRES iterations =      1
(PID.TID 0000.0001)  S/R SEAICE_KRYLOV: Picard iterate / total, KRYLOVgamma_lin, initial norm =      30   1930 0.12500E-01 0.22819E-12
(PID.TID 0000.0001)  S/R SEAICE_KRYLOV: Picard iterate / total =     30 /   1930, Nb. of FGMRES iterations =      1
(PID.TID 0000.0001)  S/R SEAICE_KRYLOV: Picard iterate / total, KRYLOVgamma_lin, initial norm =      31   1931 0.12500E-01 0.11409E-12
(PID.TID 0000.0001)  S/R SEAICE_KRYLOV: Picard iterate / total =     31 /   1931, Nb. of FGMRES iterations =      1
(PID.TID 0000.0001)  S/R SEAICE_KRYLOV: Picard iterate / total, KRYLOVgamma_lin, final   norm =      32   1932 0.12500E-01 0.57045E-13
(PID.TID 0000.0001)  // =======================================================
(PID.TID 0000.0001)  // Begin KRYLOV statistics
(PID.TID 0000.0001)  // =======================================================
(PID.TID 0000.0001)  %KRYLOV_MON: time step              =         20
(PID.TID 0000.0001)  %KRYLOV_MON: Nb. of time steps      =          1
(PID.TID 0000.0001)  %KRYLOV_MON: Nb. of Picard steps    =         32
(PID.TID 0000.0001)  %KRYLOV_MON: Nb. of Krylov steps    =         31
(PID.TID 0000.0001)  %KRYLOV_MON: Nb. of Picard failures =          0
(PID.TID 0000.0001)  %KRYLOV_MON: Nb. of Krylov failures =          0
(PID.TID 0000.0001)  // =======================================================
(PID.TID 0000.0001)  // End KRYLOV statistics
(PID.TID 0000.0001)  // =======================================================
(PID.TID 0000.0001)  S/R SEAICE_KRYLOV: Total number FGMRES iterations =     31 in timestep         20
(PID.TID 0000.0001) // =======================================================
(PID.TID 0000.0001) // Begin MONITOR dynamic field statistics
(PID.TID 0000.0001) // =======================================================
(PID.TID 0000.0001) %MON time_tsnumber                =                    20
(PID.TID 0000.0001) %MON time_secondsf                =   5.0000000000000E+01
(PID.TID 0000.0001) %MON dynstat_eta_max              =   0.0000000000000E+00
(PID.TID 0000.0001) %MON dynstat_eta_min              =   0.0000000000000E+00
(PID.TID 0000.0001) %MON dynstat_eta_mean             =   0.0000000000000E+00
(PID.TID 0000.0001) %MON dynstat_eta_sd               =   0.0000000000000E+00
(PID.TID 0000.0001) %MON dynstat_eta_del2             =   0.0000000000000E+00
(PID.TID 0000.0001) %MON dynstat_uvel_max             =   9.8437500000000E-03
(PID.TID 0000.0001) %MON dynstat_uvel_min             =  -9.8437500000000E-03
(PID.TID 0000.0001) %MON dynstat_uvel_mean            =   0.0000000000000E+00
(PID.TID 0000.0001) %MON dynstat_uvel_sd              =   5.7727978755972E-03
(PID.TID 0000.0001) %MON dynstat_uvel_del2            =   1.0089048364799E-20
(PID.TID 0000.0001) %MON dynstat_vvel_max             =   9.8437500000000E-03
(PID.TID 0000.0001) %MON dynstat_vvel_min             =  -9.8437500000000E-03
(PID.TID 0000.0001) %MON dynstat_vvel_mean            =   0.0000000000000E+00
(PID.TID 0000.0001) %MON dynstat_vvel_sd              =   5.7727978755972E-03
(PID.TID 0000.0001) %MON dynstat_vvel_del2            =   1.0089048364799E-20
(PID.TID 0000.0001) %MON dynstat_wvel_max             =   1.1914062500000E-05
(PID.TID 0000.0001) %MON dynstat_wvel_min             =  -1.1914062500000E-05
(PID.TID 0000.0001) %MON dynstat_wvel_mean            =   3.4694469519536E-25
(PID.TID 0000.0001) %MON dynstat_wvel_sd              =   1.7200872247780E-06
(PID.TID 0000.0001) %MON dynstat_wvel_del2            =   2.8187489626940E-08
(PID.TID 0000.0001) %MON dynstat_theta_max            =  -1.6200000000000E+00
(PID.TID 0000.0001) %MON dynstat_theta_min            =  -1.6200000000000E+00
(PID.TID 0000.0001) %MON dynstat_theta_mean           =  -1.6200000000000E+00
(PID.TID 0000.0001) %MON dynstat_theta_sd             =   0.0000000000000E+00
(PID.TID 0000.0001) %MON dynstat_theta_del2           =   0.0000000000000E+00
(PID.TID 0000.0001) %MON dynstat_salt_max             =   3.0000000000000E+01
(PID.TID 0000.0001) %MON dynstat_salt_min             =   3.0000000000000E+01
(PID.TID 0000.0001) %MON dynstat_salt_mean            =   3.0000000000000E+01
(PID.TID 0000.0001) %MON dynstat_salt_sd              =   0.0000000000000E+00
(PID.TID 0000.0001) %MON dynstat_salt_del2            =   0.0000000000000E+00
(PID.TID 0000.0001) %MON trAdv_CFL_u_max              =   3.0761718750000E-06
(PID.TID 0000.0001) %MON trAdv_CFL_v_max              =   3.0761718750000E-06
(PID.TID 0000.0001) %MON trAdv_CFL_w_max              =   2.9785156250000E-06
(PID.TID 0000.0001) %MON advcfl_uvel_max              =   3.0761718750000E-06
(PID.TID 0000.0001) %MON advcfl_vvel_max              =   3.0761718750000E-06
(PID.TID 0000.0001) %MON advcfl_wvel_max              =   5.9570312500000E-06
(PID.TID 0000.0001) %MON advcfl_W_hf_max              =   0.0000000000000E+00
(PID.TID 0000.0001) %MON pe_b_mean                    =   0.0000000000000E+00
(PID.TID 0000.0001) %MON ke_max                       =   9.0844726562500E-05
(PID.TID 0000.0001) %MON ke_mean                      =   3.2804489135742E-05
(PID.TID 0000.0001) %MON ke_vol                       =   2.6214400000000E+12
(PID.TID 0000.0001) %MON vort_r_min                   =  -7.8125000000000E-08
(PID.TID 0000.0001) %MON vort_r_max                   =   1.2304687500000E-06
(PID.TID 0000.0001) %MON vort_a_mean                  =   1.4856000000000E-04
(PID.TID 0000.0001) %MON vort_a_sd                    =   1.5312918562496E-06
(PID.TID 0000.0001) %MON vort_p_mean                  =   1.5552375000000E-04
(PID.TID 0000.0001) %MON vort_p_sd                    =   5.5921473110222E-05
(PID.TID 0000.0001) %MON surfExpan_theta_mean         =   0.0000000000000E+00
(PID.TID 0000.0001) %MON surfExpan_salt_mean          =   1.3877787807814E-23
(PID.TID 0000.0001) // =======================================================
(PID.TID 0000.0001) // End MONITOR dynamic field statistics
(PID.TID 0000.0001) // =======================================================
(PID.TID 0000.0001) // =======================================================
(PID.TID 0000.0001) // Begin MONITOR SEAICE statistics
(PID.TID 0000.0001) // =======================================================
(PID.TID 0000.0001) %MON seaice_tsnumber              =                    20
(PID.TID 0000.0001) %MON seaice_time_sec              =   5.0000000000000E+01
(PID.TID 0000.0001) %MON seaice_uice_max              =   3.4150163436923E-02
(PID.TID 0000.0001) %MON seaice_uice_min              =  -3.4691966090954E-02
(PID.TID 0000.0001) %MON seaice_uice_mean             =  -9.3503839343997E-07
(PID.TID 0000.0001) %MON seaice_uice_sd               =   1.4616262713734E-02
(PID.TID 0000.0001) %MON seaice_uice_del2             =   4.2512869429667E-06
(PID.TID 0000.0001) %MON seaice_vice_max              =   3.3269398957930E-02
(PID.TID 0000.0001) %MON seaice_vice_min              =  -3.3749657322772E-02
(PID.TID 0000.0001) %MON seaice_vice_mean             =   3.8551881157472E-06
(PID.TID 0000.0001) %MON seaice_vice_sd               =   1.4548571169560E-02
(PID.TID 0000.0001) %MON seaice_vice_del2             =   4.2657844487047E-06
(PID.TID 0000.0001) %MON seaice_area_max              =   1.0000000000000E+00
(PID.TID 0000.0001) %MON seaice_area_min              =   9.9998500805210E-01
(PID.TID 0000.0001) %MON seaice_area_mean             =   9.9999913992316E-01
(PID.TID 0000.0001) %MON seaice_area_sd               =   2.0116256979152E-06
(PID.TID 0000.0001) %MON seaice_area_del2             =   2.5381981830905E-08
(PID.TID 0000.0001) %MON seaice_heff_max              =   3.0999844285120E-01
(PID.TID 0000.0001) %MON seaice_heff_min              =   2.9006032875539E-01
(PID.TID 0000.0001) %MON seaice_heff_mean             =   3.0067126525963E-01
(PID.TID 0000.0001) %MON seaice_heff_sd               =   5.0069255303293E-03
(PID.TID 0000.0001) %MON seaice_heff_del2             =   1.2853734661106E-05
(PID.TID 0000.0001) %MON seaice_hsnow_max             =   0.0000000000000E+00
(PID.TID 0000.0001) %MON seaice_hsnow_min             =   0.0000000000000E+00
(PID.TID 0000.0001) %MON seaice_hsnow_mean            =   0.0000000000000E+00
(PID.TID 0000.0001) %MON seaice_hsnow_sd              =   0.0000000000000E+00
(PID.TID 0000.0001) %MON seaice_hsnow_del2            =   0.0000000000000E+00
(PID.TID 0000.0001) // =======================================================
(PID.TID 0000.0001) // End MONITOR SEAICE statistics
(PID.TID 0000.0001) // =======================================================
 Computing Diagnostic #    163  SIuice       Counter:       1   Parms: UU      M1      
           Vector  Mate for  SIuice       Diagnostic #    164  SIvice   exists 
 Computing Diagnostic #    164  SIvice       Counter:       1   Parms: VV      M1      
           Vector  Mate for  SIvice       Diagnostic #    163  SIuice   exists 
 Computing Diagnostic #    149  SIheff       Counter:       1   Parms: SM      M1      
 Computing Diagnostic #    146  SIarea       Counter:       1   Parms: SM      M1      
 Computing Diagnostic #    228  SIshear      Counter:       1   Parms: SM      M1      
 Computing Diagnostic #    233  SIcohes      Counter:       1   Parms: SM      M1      
 Computing Diagnostic #    221  SIsig1       Counter:       1   Parms: SM      M1      
 Computing Diagnostic #    222  SIsig2       Counter:       1   Parms: SM      M1      
 Computing Diagnostic #    231  SIdamage     Counter:       1   Parms: SM      M1      
 Computing Diagnostic #    165  SItaux       Counter:       1   Parms: UU      U1      
           Vector  Mate for  SItaux       Diagnostic #    166  SItauy   exists 
 Computing Diagnostic #    166  SItauy       Counter:       1   Parms: VV      U1      
           Vector  Mate for  SItauy       Diagnostic #    165  SItaux   exists 
 Computing Diagnostic #    133  EXFuwind     Counter:       1   Parms: UM      U1      
 Computing Diagnostic #    134  EXFvwind     Counter:       1   Parms: VM      U1      
(PID.TID 0000.0001) %CHECKPOINT        20 ckptA
(PID.TID 0000.0001)   Seconds in section "ALL                    [THE_MODEL_MAIN]":
(PID.TID 0000.0001)           User time:   21.467494182521477
(PID.TID 0000.0001)         System time:  0.12887099897488952
(PID.TID 0000.0001)     Wall clock time:   21.661491870880127
(PID.TID 0000.0001)          No. starts:           1
(PID.TID 0000.0001)           No. stops:           1
(PID.TID 0000.0001)   Seconds in section "INITIALISE_FIXED       [THE_MODEL_MAIN]":
(PID.TID 0000.0001)           User time:   2.0202000858262181E-002
(PID.TID 0000.0001)         System time:   6.6609997302293777E-003
(PID.TID 0000.0001)     Wall clock time:   2.9118776321411133E-002
(PID.TID 0000.0001)          No. starts:           1
(PID.TID 0000.0001)           No. stops:           1
(PID.TID 0000.0001)   Seconds in section "THE_MAIN_LOOP          [THE_MODEL_MAIN]":
(PID.TID 0000.0001)           User time:   21.447281368076801
(PID.TID 0000.0001)         System time:  0.12220699898898602
(PID.TID 0000.0001)     Wall clock time:   21.632362127304077
(PID.TID 0000.0001)          No. starts:           1
(PID.TID 0000.0001)           No. stops:           1
(PID.TID 0000.0001)   Seconds in section "INITIALISE_VARIA    [THE_MAIN_LOOP]":
(PID.TID 0000.0001)           User time:   1.6364000737667084E-002
(PID.TID 0000.0001)         System time:   2.7909995988011360E-003
(PID.TID 0000.0001)     Wall clock time:   2.0673036575317383E-002
(PID.TID 0000.0001)          No. starts:           1
(PID.TID 0000.0001)           No. stops:           1
(PID.TID 0000.0001)   Seconds in section "MAIN LOOP           [THE_MAIN_LOOP]":
(PID.TID 0000.0001)           User time:   21.430902551859617
(PID.TID 0000.0001)         System time:  0.11941399890929461
(PID.TID 0000.0001)     Wall clock time:   21.611675977706909
(PID.TID 0000.0001)          No. starts:           1
(PID.TID 0000.0001)           No. stops:           1
(PID.TID 0000.0001)   Seconds in section "MAIN_DO_LOOP        [THE_MAIN_LOOP]":
(PID.TID 0000.0001)           User time:   21.430834181606770
(PID.TID 0000.0001)         System time:  0.11940900515764952
(PID.TID 0000.0001)     Wall clock time:   21.611603975296021
(PID.TID 0000.0001)          No. starts:          20
(PID.TID 0000.0001)           No. stops:          20
(PID.TID 0000.0001)   Seconds in section "FORWARD_STEP        [MAIN_DO_LOOP]":
(PID.TID 0000.0001)           User time:   21.430686604231596
(PID.TID 0000.0001)         System time:  0.11939900275319815
(PID.TID 0000.0001)     Wall clock time:   21.611456155776978
(PID.TID 0000.0001)          No. starts:          20
(PID.TID 0000.0001)           No. stops:          20
(PID.TID 0000.0001)   Seconds in section "DO_STATEVARS_DIAGS  [FORWARD_STEP]":
(PID.TID 0000.0001)           User time:   2.8763227164745331E-003
(PID.TID 0000.0001)         System time:   1.1299736797809601E-004
(PID.TID 0000.0001)     Wall clock time:   2.9981136322021484E-003
(PID.TID 0000.0001)          No. starts:          40
(PID.TID 0000.0001)           No. stops:          40
(PID.TID 0000.0001)   Seconds in section "LOAD_FIELDS_DRIVER  [FORWARD_STEP]":
(PID.TID 0000.0001)           User time:   5.4275371134281158E-002
(PID.TID 0000.0001)         System time:   6.1398837715387344E-004
(PID.TID 0000.0001)     Wall clock time:   5.5528163909912109E-002
(PID.TID 0000.0001)          No. starts:          20
(PID.TID 0000.0001)           No. stops:          20
(PID.TID 0000.0001)   Seconds in section "EXF_GETFORCING     [LOAD_FLDS_DRIVER]":
(PID.TID 0000.0001)           User time:   5.4006986320018768E-002
(PID.TID 0000.0001)         System time:   5.7699996978044510E-004
(PID.TID 0000.0001)     Wall clock time:   5.5248022079467773E-002
(PID.TID 0000.0001)          No. starts:          20
(PID.TID 0000.0001)           No. stops:          20
(PID.TID 0000.0001)   Seconds in section "EXTERNAL_FLDS_LOAD [LOAD_FLDS_DRIVER]":
(PID.TID 0000.0001)           User time:   6.8131834268569946E-005
(PID.TID 0000.0001)         System time:   1.2998469173908234E-005
(PID.TID 0000.0001)     Wall clock time:   7.7724456787109375E-005
(PID.TID 0000.0001)          No. starts:          20
(PID.TID 0000.0001)           No. stops:          20
(PID.TID 0000.0001)   Seconds in section "DO_ATMOSPHERIC_PHYS [FORWARD_STEP]":
(PID.TID 0000.0001)           User time:   6.6585838794708252E-005
(PID.TID 0000.0001)         System time:   1.5010125935077667E-005
(PID.TID 0000.0001)     Wall clock time:   7.7962875366210938E-005
(PID.TID 0000.0001)          No. starts:          20
(PID.TID 0000.0001)           No. stops:          20
(PID.TID 0000.0001)   Seconds in section "DO_OCEANIC_PHYS     [FORWARD_STEP]":
(PID.TID 0000.0001)           User time:   21.196879841387272
(PID.TID 0000.0001)         System time:   7.6753002591431141E-002
(PID.TID 0000.0001)     Wall clock time:   21.273320198059082
(PID.TID 0000.0001)          No. starts:          20
(PID.TID 0000.0001)           No. stops:          20
(PID.TID 0000.0001)   Seconds in section "SEAICE_MODEL    [DO_OCEANIC_PHYS]":
(PID.TID 0000.0001)           User time:   21.189569689333439
(PID.TID 0000.0001)         System time:   7.6673000119626522E-002
(PID.TID 0000.0001)     Wall clock time:   21.265940189361572
(PID.TID 0000.0001)          No. starts:          20
(PID.TID 0000.0001)           No. stops:          20
(PID.TID 0000.0001)   Seconds in section "SEAICE_DYNSOLVER   [SEAICE_MODEL]":
(PID.TID 0000.0001)           User time:   21.049410745501518
(PID.TID 0000.0001)         System time:   7.5938005931675434E-002
(PID.TID 0000.0001)     Wall clock time:   21.125071525573730
(PID.TID 0000.0001)          No. starts:          20
(PID.TID 0000.0001)           No. stops:          20
(PID.TID 0000.0001)   Seconds in section "STRESS_ADV        [SEAICE_ADVDIFF]":
(PID.TID 0000.0001)           User time:   7.1788668632507324E-002
(PID.TID 0000.0001)         System time:   3.4699589014053345E-004
(PID.TID 0000.0001)     Wall clock time:   7.2141647338867188E-002
(PID.TID 0000.0001)          No. starts:          20
(PID.TID 0000.0001)           No. stops:          20
(PID.TID 0000.0001)   Seconds in section "STRESS_TENSOR_ADV [SEAICE_ADVDIFF]":
(PID.TID 0000.0001)           User time:   2.7251839637756348E-002
(PID.TID 0000.0001)         System time:   1.3600662350654602E-004
(PID.TID 0000.0001)     Wall clock time:   2.7426004409790039E-002
(PID.TID 0000.0001)          No. starts:          20
(PID.TID 0000.0001)           No. stops:          20
(PID.TID 0000.0001)   Seconds in section "THERMODYNAMICS      [FORWARD_STEP]":
(PID.TID 0000.0001)           User time:   7.7121257781982422E-003
(PID.TID 0000.0001)         System time:   1.8998980522155762E-005
(PID.TID 0000.0001)     Wall clock time:   7.7552795410156250E-003
(PID.TID 0000.0001)          No. starts:          20
(PID.TID 0000.0001)           No. stops:          20
(PID.TID 0000.0001)   Seconds in section "TRC_CORRECTION_STEP [FORWARD_STEP]":
(PID.TID 0000.0001)           User time:   6.6161155700683594E-005
(PID.TID 0000.0001)         System time:   1.7000362277030945E-005
(PID.TID 0000.0001)     Wall clock time:   7.9870223999023438E-005
(PID.TID 0000.0001)          No. starts:          20
(PID.TID 0000.0001)           No. stops:          20
(PID.TID 0000.0001)   Seconds in section "BLOCKING_EXCHANGES  [FORWARD_STEP]":
(PID.TID 0000.0001)           User time:   1.4714002609252930E-003
(PID.TID 0000.0001)         System time:   9.9837779998779297E-007
(PID.TID 0000.0001)     Wall clock time:   1.4824867248535156E-003
(PID.TID 0000.0001)          No. starts:          20
(PID.TID 0000.0001)           No. stops:          20
(PID.TID 0000.0001)   Seconds in section "MONITOR             [FORWARD_STEP]":
(PID.TID 0000.0001)           User time:   5.7964682579040527E-002
(PID.TID 0000.0001)         System time:   4.3299049139022827E-004
(PID.TID 0000.0001)     Wall clock time:   5.8423280715942383E-002
(PID.TID 0000.0001)          No. starts:          20
(PID.TID 0000.0001)           No. stops:          20
(PID.TID 0000.0001)   Seconds in section "DO_THE_MODEL_IO     [FORWARD_STEP]":
(PID.TID 0000.0001)           User time:  0.10669195652008057
(PID.TID 0000.0001)         System time:   4.0722012519836426E-002
(PID.TID 0000.0001)     Wall clock time:  0.20666623115539551
(PID.TID 0000.0001)          No. starts:          20
(PID.TID 0000.0001)           No. stops:          20
(PID.TID 0000.0001)   Seconds in section "DO_WRITE_PICKUP     [FORWARD_STEP]":
(PID.TID 0000.0001)           User time:   1.8323659896850586E-003
(PID.TID 0000.0001)         System time:   6.3600391149520874E-004
(PID.TID 0000.0001)     Wall clock time:   4.2786598205566406E-003
(PID.TID 0000.0001)          No. starts:          20
(PID.TID 0000.0001)           No. stops:          20
(PID.TID 0000.0001) // ======================================================
(PID.TID 0000.0001) // Tile <-> Tile communication statistics
(PID.TID 0000.0001) // ======================================================
(PID.TID 0000.0001) // o Tile number: 000001
(PID.TID 0000.0001) //         No. X exchanges =              0
(PID.TID 0000.0001) //            Max. X spins =              0
(PID.TID 0000.0001) //            Min. X spins =     1000000000
(PID.TID 0000.0001) //          Total. X spins =              0
(PID.TID 0000.0001) //            Avg. X spins =       0.00E+00
(PID.TID 0000.0001) //         No. Y exchanges =              0
(PID.TID 0000.0001) //            Max. Y spins =              0
(PID.TID 0000.0001) //            Min. Y spins =     1000000000
(PID.TID 0000.0001) //          Total. Y spins =              0
(PID.TID 0000.0001) //            Avg. Y spins =       0.00E+00
(PID.TID 0000.0001) // o Thread number: 000001
(PID.TID 0000.0001) //            No. barriers =          11334
(PID.TID 0000.0001) //      Max. barrier spins =              1
(PID.TID 0000.0001) //      Min. barrier spins =              1
(PID.TID 0000.0001) //     Total barrier spins =          11334
(PID.TID 0000.0001) //      Avg. barrier spins =       1.00E+00
PROGRAM MAIN: Execution ended Normally
