(PID.TID 0000.0001) 
(PID.TID 0000.0001) // ======================================================
(PID.TID 0000.0001) //                      MITgcm UV
(PID.TID 0000.0001) //                      =========
(PID.TID 0000.0001) // ======================================================
(PID.TID 0000.0001) // execution environment starting up...
(PID.TID 0000.0001) 
(PID.TID 0000.0001) // MITgcmUV version:  checkpoint68e
(PID.TID 0000.0001) // Build user:        mbourget
(PID.TID 0000.0001) // Build host:        bkli04m075.dmawi.de
(PID.TID 0000.0001) // Build date:        Thu Feb 22 12:09:35 CET 2024
(PID.TID 0000.0001) 
(PID.TID 0000.0001) // =======================================================
(PID.TID 0000.0001) // Execution Environment parameter file "eedata"
(PID.TID 0000.0001) // =======================================================
(PID.TID 0000.0001) ># Example "eedata" file
(PID.TID 0000.0001) ># Lines beginning "#" are comments
(PID.TID 0000.0001) ># nTx - No. threads per process in X
(PID.TID 0000.0001) ># nTy - No. threads per process in Y
(PID.TID 0000.0001) > &EEPARMS
(PID.TID 0000.0001) > nTx=1,
(PID.TID 0000.0001) > nTy=1,
(PID.TID 0000.0001) > /
(PID.TID 0000.0001) 
(PID.TID 0000.0001) // =======================================================
(PID.TID 0000.0001) // Computational Grid Specification ( see files "SIZE.h" )
(PID.TID 0000.0001) //                                  ( and "eedata"       )
(PID.TID 0000.0001) // =======================================================
(PID.TID 0000.0001)      nPx =    1 ; /* No. processes in X */
(PID.TID 0000.0001)      nPy =    1 ; /* No. processes in Y */
(PID.TID 0000.0001)      nSx =    1 ; /* No. tiles in X per process */
(PID.TID 0000.0001)      nSy =    1 ; /* No. tiles in Y per process */
(PID.TID 0000.0001)      sNx =   65 ; /* Tile size in X */
(PID.TID 0000.0001)      sNy =   65 ; /* Tile size in Y */
(PID.TID 0000.0001)      OLx =    4 ; /* Tile overlap distance in X */
(PID.TID 0000.0001)      OLy =    4 ; /* Tile overlap distance in Y */
(PID.TID 0000.0001)      nTx =    1 ; /* No. threads in X per process */
(PID.TID 0000.0001)      nTy =    1 ; /* No. threads in Y per process */
(PID.TID 0000.0001)       Nr =    1 ; /* No. levels in the vertical   */
(PID.TID 0000.0001)       Nx =   65 ; /* Total domain size in X ( = nPx*nSx*sNx ) */
(PID.TID 0000.0001)       Ny =   65 ; /* Total domain size in Y ( = nPy*nSy*sNy ) */
(PID.TID 0000.0001)   nTiles =    1 ; /* Total no. tiles per process ( = nSx*nSy ) */
(PID.TID 0000.0001)   nProcs =    1 ; /* Total no. processes ( = nPx*nPy ) */
(PID.TID 0000.0001) nThreads =    1 ; /* Total no. threads per process ( = nTx*nTy ) */
(PID.TID 0000.0001) usingMPI =    F ; /* Flag used to control whether MPI is in use */
(PID.TID 0000.0001)                   /*  note: To execute a program with MPI calls */
(PID.TID 0000.0001)                   /*  it must be launched appropriately e.g     */
(PID.TID 0000.0001)                   /*  "mpirun -np 64 ......"                    */
(PID.TID 0000.0001) useCoupler=   F ; /* Flag used to control communications with   */
(PID.TID 0000.0001)                   /*  other model components, through a coupler */
(PID.TID 0000.0001) useNest2W_parent =    F ;/* Control 2-W Nesting comm */
(PID.TID 0000.0001) useNest2W_child  =    F ;/* Control 2-W Nesting comm */
(PID.TID 0000.0001) debugMode =    F ; /* print debug msg. (sequence of S/R calls)  */
(PID.TID 0000.0001) printMapIncludesZeros=    F ; /* print zeros in Std.Output maps */
(PID.TID 0000.0001) maxLengthPrt1D=   65 /* maxLength of 1D array printed to StdOut */
(PID.TID 0000.0001) 
(PID.TID 0000.0001) // ======================================================
(PID.TID 0000.0001) // Mapping of tiles to threads
(PID.TID 0000.0001) // ======================================================
(PID.TID 0000.0001) // -o- Thread   1, tiles (   1:   1,   1:   1)
(PID.TID 0000.0001) 
(PID.TID 0000.0001) // ======================================================
(PID.TID 0000.0001) // Tile <-> Tile connectvity table
(PID.TID 0000.0001) // ======================================================
(PID.TID 0000.0001) // Tile number: 000001 (process no. = 000000)
(PID.TID 0000.0001) //        WEST: Tile = 000001, Process = 000000, Comm = put
(PID.TID 0000.0001) //                bi = 000001, bj = 000001
(PID.TID 0000.0001) //        EAST: Tile = 000001, Process = 000000, Comm = put
(PID.TID 0000.0001) //                bi = 000001, bj = 000001
(PID.TID 0000.0001) //       SOUTH: Tile = 000001, Process = 000000, Comm = put
(PID.TID 0000.0001) //                bi = 000001, bj = 000001
(PID.TID 0000.0001) //       NORTH: Tile = 000001, Process = 000000, Comm = put
(PID.TID 0000.0001) //                bi = 000001, bj = 000001
(PID.TID 0000.0001) 
(PID.TID 0000.0001)  INI_PARMS: opening model parameter file "data"
(PID.TID 0000.0001)  OPEN_COPY_DATA_FILE: opening file data
(PID.TID 0000.0001) // =======================================================
(PID.TID 0000.0001) // Parameter file "data"
(PID.TID 0000.0001) // =======================================================
(PID.TID 0000.0001) >/ =======================================================
(PID.TID 0000.0001) >/ Parameter file "data"
(PID.TID 0000.0001) >/ =======================================================
(PID.TID 0000.0001) ># ====================
(PID.TID 0000.0001) ># | Model parameters |
(PID.TID 0000.0001) ># ====================
(PID.TID 0000.0001) >#
(PID.TID 0000.0001) > &PARM01
(PID.TID 0000.0001) > tRef= -1.62,
(PID.TID 0000.0001) > sRef= 30.,
(PID.TID 0000.0001) > HeatCapacity_Cp = 3986.,
(PID.TID 0000.0001) > rhoNil          = 1026.,
(PID.TID 0000.0001) > rhoConst        = 1026.,
(PID.TID 0000.0001) > rhoConstFresh   = 1000.,
(PID.TID 0000.0001) > f0=1.46e-4,
(PID.TID 0000.0001) > saltStepping=.FALSE.,
(PID.TID 0000.0001) > tempStepping=.FALSE.,
(PID.TID 0000.0001) > momStepping=.FALSE.,
(PID.TID 0000.0001) > readBinaryPrec=64,
(PID.TID 0000.0001) > writeBinaryPrec=32,
(PID.TID 0000.0001) > useSingleCpuIO=.TRUE.,
(PID.TID 0000.0001) >#debugLevel=4,
(PID.TID 0000.0001) > /
(PID.TID 0000.0001) >
(PID.TID 0000.0001) ># Elliptic solver parameters
(PID.TID 0000.0001) > &PARM02
(PID.TID 0000.0001) > cg2dMaxIters=500,
(PID.TID 0000.0001) > cg2dTargetResidual=1.E-12,
(PID.TID 0000.0001) > /
(PID.TID 0000.0001) >
(PID.TID 0000.0001) ># Time stepping parameters
(PID.TID 0000.0001) > &PARM03
(PID.TID 0000.0001) > startTime=0.0,
(PID.TID 0000.0001) ># 2 days
(PID.TID 0000.0001) >#endTime = 172800.,
(PID.TID 0000.0001) >#nTimeSteps = 1441,
(PID.TID 0000.0001) > nTimeSteps = 20,
(PID.TID 0000.0001) > deltaT=2.5,
(PID.TID 0000.0001) > abEps=0.1,
(PID.TID 0000.0001) > forcing_In_AB = .FALSE.,
(PID.TID 0000.0001) > dumpFreq  = 0.,
(PID.TID 0000.0001) > monitorSelect=2,
(PID.TID 0000.0001) > /
(PID.TID 0000.0001) >
(PID.TID 0000.0001) ># Gridding parameters
(PID.TID 0000.0001) > &PARM04
(PID.TID 0000.0001) > usingCartesianGrid=.TRUE.,
(PID.TID 0000.0001) > dxSpacing=8.E3,
(PID.TID 0000.0001) > dySpacing=8.E3,
(PID.TID 0000.0001) > delR= 10.,
(PID.TID 0000.0001) > /
(PID.TID 0000.0001) >
(PID.TID 0000.0001) ># Input datasets
(PID.TID 0000.0001) > &PARM05
(PID.TID 0000.0001) > bathyFile       = 'bathy_3c_8000.bin',
(PID.TID 0000.0001) > uVelInitFile    = 'uVel_8000.bin',
(PID.TID 0000.0001) > vVelInitFile    = 'vVel_8000.bin',
(PID.TID 0000.0001) > /
(PID.TID 0000.0001) 
(PID.TID 0000.0001)  INI_PARMS ; starts to read PARM01
(PID.TID 0000.0001)  INI_PARMS ; read PARM01 : OK
(PID.TID 0000.0001) S/R INI_PARMS: No request for barotropic solver
(PID.TID 0000.0001) S/R INI_PARMS: => Use implicitFreeSurface as default
(PID.TID 0000.0001)  INI_PARMS ; starts to read PARM02
(PID.TID 0000.0001)  INI_PARMS ; read PARM02 : OK
(PID.TID 0000.0001)  INI_PARMS ; starts to read PARM03
(PID.TID 0000.0001)  INI_PARMS ; read PARM03 : OK
(PID.TID 0000.0001)  INI_PARMS ; starts to read PARM04
(PID.TID 0000.0001)  INI_PARMS ; read PARM04 : OK
(PID.TID 0000.0001)  INI_PARMS ; starts to read PARM05
(PID.TID 0000.0001)  INI_PARMS ; read PARM05 : OK
(PID.TID 0000.0001)  INI_PARMS: finished reading file "data"
(PID.TID 0000.0001)  PACKAGES_BOOT: opening data.pkg
(PID.TID 0000.0001)  OPEN_COPY_DATA_FILE: opening file data.pkg
(PID.TID 0000.0001) // =======================================================
(PID.TID 0000.0001) // Parameter file "data.pkg"
(PID.TID 0000.0001) // =======================================================
(PID.TID 0000.0001) ># Packages
(PID.TID 0000.0001) > &PACKAGES
(PID.TID 0000.0001) >  useEXF    = .TRUE.,
(PID.TID 0000.0001) >  useSEAICE = .TRUE.,
(PID.TID 0000.0001) >  useDiagnostics=.TRUE.,
(PID.TID 0000.0001) > /
(PID.TID 0000.0001) 
(PID.TID 0000.0001)  PACKAGES_BOOT: finished reading data.pkg
(PID.TID 0000.0001) ** WARNING ** PACKAGES_BOOT: useCAL no longer set to T when using EXF (useEXF=T)
(PID.TID 0000.0001) ** WARNING ** PACKAGES_BOOT:  as it used to be before checkpoint66d (2017/02/13)
(PID.TID 0000.0001)  PACKAGES_BOOT: On/Off package Summary
 --------  pkgs with a standard "usePKG" On/Off switch in "data.pkg":  --------
 pkg/cal                  compiled but not used ( useCAL                   = F )
 pkg/exf                  compiled   and   used ( useEXF                   = T )
 pkg/seaice               compiled   and   used ( useSEAICE                = T )
 pkg/thsice               compiled but not used ( useThSIce                = F )
 pkg/diagnostics          compiled   and   used ( useDiagnostics           = T )
 -------- pkgs without standard "usePKG" On/Off switch in "data.pkg":  --------
 pkg/generic_advdiff      compiled but not used ( useGAD                   = F )
 pkg/mom_common           compiled but not used ( momStepping              = F )
 pkg/mom_vecinv           compiled but not used ( +vectorInvariantMomentum = F )
 pkg/mom_fluxform         compiled but not used ( & not vectorInvariantMom = F )
 pkg/monitor              compiled   and   used ( monitorFreq > 0.         = T )
 pkg/debug                compiled but not used ( debugMode                = F )
 pkg/rw                   compiled   and   used
 pkg/mdsio                compiled   and   used
(PID.TID 0000.0001)  PACKAGES_BOOT: End of package Summary
(PID.TID 0000.0001) 
(PID.TID 0000.0001) EXF_READPARMS: opening data.exf
(PID.TID 0000.0001)  OPEN_COPY_DATA_FILE: opening file data.exf
(PID.TID 0000.0001) // =======================================================
(PID.TID 0000.0001) // Parameter file "data.exf"
(PID.TID 0000.0001) // =======================================================
(PID.TID 0000.0001) >#
(PID.TID 0000.0001) ># *********************
(PID.TID 0000.0001) ># External Forcing Data
(PID.TID 0000.0001) ># *********************
(PID.TID 0000.0001) > &EXF_NML_01
(PID.TID 0000.0001) >#
(PID.TID 0000.0001) > useExfCheckRange  = .TRUE.,
(PID.TID 0000.0001) > repeatPeriod      = 1382400.0,
(PID.TID 0000.0001) > exf_iprec         = 64,
(PID.TID 0000.0001) > exf_monFreq       = 86400000.,
(PID.TID 0000.0001) > atmrho            = 1.3,
(PID.TID 0000.0001) >#useRelativeWind = .TRUE.,
(PID.TID 0000.0001) >#
(PID.TID 0000.0001) > /
(PID.TID 0000.0001) >
(PID.TID 0000.0001) ># *********************
(PID.TID 0000.0001) > &EXF_NML_02
(PID.TID 0000.0001) >#
(PID.TID 0000.0001) >#uwindstartdate1   = 00000101,
(PID.TID 0000.0001) >#uwindstartdate2   = 000000,
(PID.TID 0000.0001) > uwindperiod       = 10800.0,
(PID.TID 0000.0001) >#
(PID.TID 0000.0001) >#vwindstartdate1   = 00000101,
(PID.TID 0000.0001) >#vwindstartdate2   = 000000,
(PID.TID 0000.0001) > vwindperiod       = 10800.0,
(PID.TID 0000.0001) >#
(PID.TID 0000.0001) > uwindfile         = 'Uwindfield_shifted_8000.bin',
(PID.TID 0000.0001) > vwindfile         = 'Vwindfield_shifted_8000.bin',
(PID.TID 0000.0001) > /
(PID.TID 0000.0001) >
(PID.TID 0000.0001) ># *********************
(PID.TID 0000.0001) > &EXF_NML_03
(PID.TID 0000.0001) > /
(PID.TID 0000.0001) >
(PID.TID 0000.0001) ># *********************
(PID.TID 0000.0001) ># old open64 compiler (4.2.1) cannot skip this namelist to read in the next one;
(PID.TID 0000.0001) ># comment out this namelist (not read).
(PID.TID 0000.0001) >#&EXF_NML_04
(PID.TID 0000.0001) >#&
(PID.TID 0000.0001) >
(PID.TID 0000.0001) ># *********************
(PID.TID 0000.0001) > &EXF_NML_OBCS
(PID.TID 0000.0001) > /
(PID.TID 0000.0001) 
(PID.TID 0000.0001) EXF_READPARMS: reading EXF_NML_01
(PID.TID 0000.0001) EXF_READPARMS: reading EXF_NML_02
(PID.TID 0000.0001) EXF_READPARMS: reading EXF_NML_03
(PID.TID 0000.0001) EXF_READPARMS: finished reading data.exf
(PID.TID 0000.0001) 
(PID.TID 0000.0001)  SEAICE_READPARMS: opening data.seaice
(PID.TID 0000.0001)  OPEN_COPY_DATA_FILE: opening file data.seaice
(PID.TID 0000.0001) // =======================================================
(PID.TID 0000.0001) // Parameter file "data.seaice"
(PID.TID 0000.0001) // =======================================================
(PID.TID 0000.0001) ># SEAICE parameters
(PID.TID 0000.0001) > &SEAICE_PARM01
(PID.TID 0000.0001) > SEAICE_monFreq = 1.,
(PID.TID 0000.0001) > SEAICEwriteState = .TRUE.,
(PID.TID 0000.0001) > usePW79thermodynamics=.FALSE.,
(PID.TID 0000.0001) >#SEAICE_strength    = 27.5e+3,
(PID.TID 0000.0001) >#meb
(PID.TID 0000.0001) > SEAICE_strength    = 5.0e+8,
(PID.TID 0000.0001) > SEAICEcohesion     = 25.0e+1,
(PID.TID 0000.0001) > SEAICEhealingTime = 1e+5,
(PID.TID 0000.0001) > SEAICEmebNormCorr = .TRUE.,
(PID.TID 0000.0001) > SEAICEuseIMEX= .TRUE.,
(PID.TID 0000.0001) > SEAICEuseMEB   = .TRUE.,
(PID.TID 0000.0001) > SEAICEupdateDamage = .TRUE.,
(PID.TID 0000.0001) > SEAICEuseKrylov = .TRUE.,
(PID.TID 0000.0001) > SEAICEdamageTime = 8.,
(PID.TID 0000.0001) >#SEAICEscaleSurfStress = .FALSE.,
(PID.TID 0000.0001) > SEAICE_rhoIce      = 900.,
(PID.TID 0000.0001) > SEAICE_drag        = 1.2e-3,
(PID.TID 0000.0001) > SEAICE_waterDrag   = 5.5e-3,
(PID.TID 0000.0001) > SEAICE_no_Slip     = .TRUE.,
(PID.TID 0000.0001) > SEAICE_deltaMin    = 2.e-9,
(PID.TID 0000.0001) >#SEAICEpressReplFac = 0.,
(PID.TID 0000.0001) > SEAICEuseJFNK       = .FALSE.,
(PID.TID 0000.0001) > SEAICEnonLinIterMax = 100,
(PID.TID 0000.0001) > SEAICEpreconLinIter = 10,
(PID.TID 0000.0001) > SEAICElinearIterMax = 50,
(PID.TID 0000.0001) > SEAICEnonLinTol     = 1.e-12,
(PID.TID 0000.0001) > SEAICE_JFNK_lsIter  = 10,
(PID.TID 0000.0001) > SEAICE_JFNK_tolIter = 50,
(PID.TID 0000.0001) > JFNKres_tFac        = 0.5,
(PID.TID 0000.0001) >#SEAICE_JFNKepsilon  = 1.D-06,
(PID.TID 0000.0001) > SEAICE_JFNKphi      = 0.7,
(PID.TID 0000.0001) > SEAICE_JFNKalpha    = 1.5,
(PID.TID 0000.0001) > SEAICEadvScheme    = 77,
(PID.TID 0000.0001) >#SEAICEadvSnow = .FALSE.,
(PID.TID 0000.0001) >#SEAICEadvHEFF = .FALSE.,
(PID.TID 0000.0001) >#SEAICEadvAREA = .FALSE.,
(PID.TID 0000.0001) > SEAICEadvStress = .FALSE.,
(PID.TID 0000.0001) >#SEAICE_initialHeff = 0.3,
(PID.TID 0000.0001) > HeffFile  = 'thickness_aniso_8000.bin',
(PID.TID 0000.0001) > AreaFile  = 'const_1.0_8000.bin',
(PID.TID 0000.0001) > HsnowFile = 'const_00_8000.bin',
(PID.TID 0000.0001) >#CohesFile = 'cohesion_8000.bin',
(PID.TID 0000.0001) > /
(PID.TID 0000.0001) >
(PID.TID 0000.0001) > &SEAICE_PARM03
(PID.TID 0000.0001) > /
(PID.TID 0000.0001) 
(PID.TID 0000.0001)  SEAICE_READPARMS: finished reading data.seaice
(PID.TID 0000.0001)  DIAGNOSTICS_READPARMS: opening data.diagnostics
(PID.TID 0000.0001)  OPEN_COPY_DATA_FILE: opening file data.diagnostics
(PID.TID 0000.0001) // =======================================================
(PID.TID 0000.0001) // Parameter file "data.diagnostics"
(PID.TID 0000.0001) // =======================================================
(PID.TID 0000.0001) ># Diagnostic Package Choices
(PID.TID 0000.0001) >#--------------------
(PID.TID 0000.0001) >#  dumpAtLast (logical): always write output at the end of simulation (default=F)
(PID.TID 0000.0001) >#  diag_mnc   (logical): write to NetCDF files (default=useMNC)
(PID.TID 0000.0001) >#--for each output-stream:
(PID.TID 0000.0001) >#  fileName(n) : prefix of the output file name (max 80c long) for outp.stream n
(PID.TID 0000.0001) >#  frequency(n):< 0 : write snap-shot output every |frequency| seconds
(PID.TID 0000.0001) >#               > 0 : write time-average output every frequency seconds
(PID.TID 0000.0001) >#  timePhase(n)     : write at time = timePhase + multiple of |frequency|
(PID.TID 0000.0001) >#    averagingFreq  : frequency (in s) for periodic averaging interval
(PID.TID 0000.0001) >#    averagingPhase : phase     (in s) for periodic averaging interval
(PID.TID 0000.0001) >#    repeatCycle    : number of averaging intervals in 1 cycle
(PID.TID 0000.0001) >#  levels(:,n) : list of levels to write to file (Notes: declared as REAL)
(PID.TID 0000.0001) >#                when this entry is missing, select all common levels of this list
(PID.TID 0000.0001) >#  fields(:,n) : list of selected diagnostics fields (8.c) in outp.stream n
(PID.TID 0000.0001) >#                (see "available_diagnostics.log" file for the full list of diags)
(PID.TID 0000.0001) >#  missing_value(n) : missing value for real-type fields in output file "n"
(PID.TID 0000.0001) >#  fileFlags(n)     : specific code (8c string) for output file "n"
(PID.TID 0000.0001) >#--------------------
(PID.TID 0000.0001) ># This example dumps EXF diagnostics as snapshot after 10 time-steps
(PID.TID 0000.0001) ># Note: EXF air-sea fluxes over Sea-Ice are wrong
(PID.TID 0000.0001) > &DIAGNOSTICS_LIST
(PID.TID 0000.0001) >   dumpAtLast  = .TRUE.,
(PID.TID 0000.0001) >#--
(PID.TID 0000.0001) >  fields(1:11,1) = 'EXFtaux ','EXFtauy ','EXFqnet ','EXFempmr',
(PID.TID 0000.0001) >                   'EXFhl   ','EXFhs   ','EXFswnet','EXFlwnet',
(PID.TID 0000.0001) >                   'EXFuwind','EXFvwind','EXFatemp',
(PID.TID 0000.0001) >#  fileName(1) = 'exfDiag',
(PID.TID 0000.0001) >  frequency(1) = 86400.,
(PID.TID 0000.0001) >
(PID.TID 0000.0001) >  fields(1:4,2)  = 'SIuice  ','SIvice  ','SIheff  ',
(PID.TID 0000.0001) >                   'SIarea  ',
(PID.TID 0000.0001) >#  fileName(2) = 'iceDiag',
(PID.TID 0000.0001) >  frequency(2) =  86400.,
(PID.TID 0000.0001) >  missing_value(2) = -999.,
(PID.TID 0000.0001) >
(PID.TID 0000.0001) >  fields(1:13,3)  = 'SIuice  ','SIvice  ','SIheff  ',
(PID.TID 0000.0001) >                   'SIarea  ','SIshear ','SIcohes ',
(PID.TID 0000.0001) >       	           'SIsig1  ','SIsig2  ','SIdamage',
(PID.TID 0000.0001) >		   'SItaux  ','SItauy  ',
(PID.TID 0000.0001) >		   'EXFuwind','EXFvwind',
(PID.TID 0000.0001) >   fileName(3) = 'snapshot',
(PID.TID 0000.0001) >  frequency(3) = 1.,
(PID.TID 0000.0001) ># frequency(3) = -1800.,
(PID.TID 0000.0001) ># timePhase(3) =  1800.,
(PID.TID 0000.0001) >  missing_value(3) = -999.,
(PID.TID 0000.0001) > /
(PID.TID 0000.0001) >
(PID.TID 0000.0001) >#--------------------
(PID.TID 0000.0001) ># Parameter for Diagnostics of per level statistics:
(PID.TID 0000.0001) >#--------------------
(PID.TID 0000.0001) >#  diagSt_mnc (logical): write stat-diags to NetCDF files (default=diag_mnc)
(PID.TID 0000.0001) >#  diagSt_regMaskFile : file containing the region-mask to read-in
(PID.TID 0000.0001) >#  nSetRegMskFile   : number of region-mask sets within the region-mask file
(PID.TID 0000.0001) >#  set_regMask(i)   : region-mask set-index that identifies the region "i"
(PID.TID 0000.0001) >#  val_regMask(i)   : region "i" identifier value in the region mask
(PID.TID 0000.0001) >#--for each output-stream:
(PID.TID 0000.0001) >#  stat_fName(n) : prefix of the output file name (max 80c long) for outp.stream n
(PID.TID 0000.0001) >#  stat_freq(n):< 0 : write snap-shot output every |stat_freq| seconds
(PID.TID 0000.0001) >#               > 0 : write time-average output every stat_freq seconds
(PID.TID 0000.0001) >#  stat_phase(n)    : write at time = stat_phase + multiple of |stat_freq|
(PID.TID 0000.0001) >#  stat_region(:,n) : list of "regions" (default: 1 region only=global)
(PID.TID 0000.0001) >#  stat_fields(:,n) : list of selected diagnostics fields (8.c) in outp.stream n
(PID.TID 0000.0001) >#                (see "available_diagnostics.log" file for the full list of diags)
(PID.TID 0000.0001) >#--------------------
(PID.TID 0000.0001) > &DIAG_STATIS_PARMS
(PID.TID 0000.0001) > stat_fields(1:5,1)  = 'SIarea  ','SIheff  ','SIhsnow ',
(PID.TID 0000.0001) >                       'SIuice  ','SIvice  ',
(PID.TID 0000.0001) ># stat_fName(1) = 'iceStDiag',
(PID.TID 0000.0001) >   stat_freq(1) = 86400.,
(PID.TID 0000.0001) ># stat_phase(1) = 1800.,
(PID.TID 0000.0001) > /
(PID.TID 0000.0001) 
(PID.TID 0000.0001) S/R DIAGNOSTICS_READPARMS, read namelist "diagnostics_list": start
(PID.TID 0000.0001) S/R DIAGNOSTICS_READPARMS, read namelist "diagnostics_list": OK
(PID.TID 0000.0001) S/R DIAGNOSTICS_READPARMS, read namelist "DIAG_STATIS_PARMS": start
(PID.TID 0000.0001) S/R DIAGNOSTICS_READPARMS, read namelist "DIAG_STATIS_PARMS": OK
(PID.TID 0000.0001)  DIAGNOSTICS_READPARMS: global parameter summary:
(PID.TID 0000.0001)  dumpAtLast = /* always write time-ave diags at the end */
(PID.TID 0000.0001)                   T
(PID.TID 0000.0001)     ;
(PID.TID 0000.0001)  diag_mnc =   /* write NetCDF output files */
(PID.TID 0000.0001)                   F
(PID.TID 0000.0001)     ;
(PID.TID 0000.0001)  useMissingValue = /* put MissingValue where mask = 0 */
(PID.TID 0000.0001)                   F
(PID.TID 0000.0001)     ;
(PID.TID 0000.0001)  diagCG_maxIters = /* max number of iters in diag_cg2d */
(PID.TID 0000.0001)                     500
(PID.TID 0000.0001)     ;
(PID.TID 0000.0001)  diagCG_resTarget = /* residual target for diag_cg2d */
(PID.TID 0000.0001)                 1.000000000000000E-12
(PID.TID 0000.0001)     ;
(PID.TID 0000.0001)  diagCG_pcOffDFac = /* preconditioner off-diagonal factor */
(PID.TID 0000.0001)                 9.611687812379854E-01
(PID.TID 0000.0001)     ;
(PID.TID 0000.0001) -----------------------------------------------------
(PID.TID 0000.0001)  DIAGNOSTICS_READPARMS: active diagnostics summary:
(PID.TID 0000.0001) -----------------------------------------------------
(PID.TID 0000.0001) Creating Output Stream: snapshot
(PID.TID 0000.0001) Output Frequency:          1.000000 ; Phase:           0.000000
(PID.TID 0000.0001)  Averaging Freq.:          1.000000 , Phase:           0.000000 , Cycle:   1
(PID.TID 0000.0001)  missing value: -9.990000000000E+02
(PID.TID 0000.0001)  Levels:    will be set later
(PID.TID 0000.0001)  Fields:    SIuice   SIvice   SIheff   SIarea   SIshear  SIcohes  SIsig1   SIsig2   SIdamage SItaux
(PID.TID 0000.0001)  Fields:    SItauy   EXFuwind EXFvwind
(PID.TID 0000.0001) -----------------------------------------------------
(PID.TID 0000.0001)  DIAGNOSTICS_READPARMS: statistics diags. summary:
(PID.TID 0000.0001) -----------------------------------------------------
(PID.TID 0000.0001) 
(PID.TID 0000.0001) SET_PARMS: done
(PID.TID 0000.0001) Enter INI_VERTICAL_GRID: setInterFDr=    T ; setCenterDr=    F
(PID.TID 0000.0001) %MON XC_max                       =   5.1600000000000E+05
(PID.TID 0000.0001) %MON XC_min                       =   4.0000000000000E+03
(PID.TID 0000.0001) %MON XC_mean                      =   2.6000000000000E+05
(PID.TID 0000.0001) %MON XC_sd                        =   1.5009330431435E+05
(PID.TID 0000.0001) %MON XG_max                       =   5.1200000000000E+05
(PID.TID 0000.0001) %MON XG_min                       =   0.0000000000000E+00
(PID.TID 0000.0001) %MON XG_mean                      =   2.5600000000000E+05
(PID.TID 0000.0001) %MON XG_sd                        =   1.5009330431435E+05
(PID.TID 0000.0001) %MON DXC_max                      =   8.0000000000000E+03
(PID.TID 0000.0001) %MON DXC_min                      =   8.0000000000000E+03
(PID.TID 0000.0001) %MON DXC_mean                     =   8.0000000000000E+03
(PID.TID 0000.0001) %MON DXC_sd                       =   0.0000000000000E+00
(PID.TID 0000.0001) %MON DXF_max                      =   8.0000000000000E+03
(PID.TID 0000.0001) %MON DXF_min                      =   8.0000000000000E+03
(PID.TID 0000.0001) %MON DXF_mean                     =   8.0000000000000E+03
(PID.TID 0000.0001) %MON DXF_sd                       =   0.0000000000000E+00
(PID.TID 0000.0001) %MON DXG_max                      =   8.0000000000000E+03
(PID.TID 0000.0001) %MON DXG_min                      =   8.0000000000000E+03
(PID.TID 0000.0001) %MON DXG_mean                     =   8.0000000000000E+03
(PID.TID 0000.0001) %MON DXG_sd                       =   0.0000000000000E+00
(PID.TID 0000.0001) %MON DXV_max                      =   8.0000000000000E+03
(PID.TID 0000.0001) %MON DXV_min                      =   8.0000000000000E+03
(PID.TID 0000.0001) %MON DXV_mean                     =   8.0000000000000E+03
(PID.TID 0000.0001) %MON DXV_sd                       =   0.0000000000000E+00
(PID.TID 0000.0001) %MON YC_max                       =   5.1600000000000E+05
(PID.TID 0000.0001) %MON YC_min                       =   4.0000000000000E+03
(PID.TID 0000.0001) %MON YC_mean                      =   2.6000000000000E+05
(PID.TID 0000.0001) %MON YC_sd                        =   1.5009330431435E+05
(PID.TID 0000.0001) %MON YG_max                       =   5.1200000000000E+05
(PID.TID 0000.0001) %MON YG_min                       =   0.0000000000000E+00
(PID.TID 0000.0001) %MON YG_mean                      =   2.5600000000000E+05
(PID.TID 0000.0001) %MON YG_sd                        =   1.5009330431435E+05
(PID.TID 0000.0001) %MON DYC_max                      =   8.0000000000000E+03
(PID.TID 0000.0001) %MON DYC_min                      =   8.0000000000000E+03
(PID.TID 0000.0001) %MON DYC_mean                     =   8.0000000000000E+03
(PID.TID 0000.0001) %MON DYC_sd                       =   0.0000000000000E+00
(PID.TID 0000.0001) %MON DYF_max                      =   8.0000000000000E+03
(PID.TID 0000.0001) %MON DYF_min                      =   8.0000000000000E+03
(PID.TID 0000.0001) %MON DYF_mean                     =   8.0000000000000E+03
(PID.TID 0000.0001) %MON DYF_sd                       =   0.0000000000000E+00
(PID.TID 0000.0001) %MON DYG_max                      =   8.0000000000000E+03
(PID.TID 0000.0001) %MON DYG_min                      =   8.0000000000000E+03
(PID.TID 0000.0001) %MON DYG_mean                     =   8.0000000000000E+03
(PID.TID 0000.0001) %MON DYG_sd                       =   0.0000000000000E+00
(PID.TID 0000.0001) %MON DYU_max                      =   8.0000000000000E+03
(PID.TID 0000.0001) %MON DYU_min                      =   8.0000000000000E+03
(PID.TID 0000.0001) %MON DYU_mean                     =   8.0000000000000E+03
(PID.TID 0000.0001) %MON DYU_sd                       =   0.0000000000000E+00
(PID.TID 0000.0001) %MON RA_max                       =   6.4000000000000E+07
(PID.TID 0000.0001) %MON RA_min                       =   6.4000000000000E+07
(PID.TID 0000.0001) %MON RA_mean                      =   6.4000000000000E+07
(PID.TID 0000.0001) %MON RA_sd                        =   0.0000000000000E+00
(PID.TID 0000.0001) %MON RAW_max                      =   6.4000000000000E+07
(PID.TID 0000.0001) %MON RAW_min                      =   6.4000000000000E+07
(PID.TID 0000.0001) %MON RAW_mean                     =   6.4000000000000E+07
(PID.TID 0000.0001) %MON RAW_sd                       =   0.0000000000000E+00
(PID.TID 0000.0001) %MON RAS_max                      =   6.4000000000000E+07
(PID.TID 0000.0001) %MON RAS_min                      =   6.4000000000000E+07
(PID.TID 0000.0001) %MON RAS_mean                     =   6.4000000000000E+07
(PID.TID 0000.0001) %MON RAS_sd                       =   0.0000000000000E+00
(PID.TID 0000.0001) %MON RAZ_max                      =   6.4000000000000E+07
(PID.TID 0000.0001) %MON RAZ_min                      =   6.4000000000000E+07
(PID.TID 0000.0001) %MON RAZ_mean                     =   6.4000000000000E+07
(PID.TID 0000.0001) %MON RAZ_sd                       =   0.0000000000000E+00
(PID.TID 0000.0001) %MON AngleCS_max                  =   1.0000000000000E+00
(PID.TID 0000.0001) %MON AngleCS_min                  =   1.0000000000000E+00
(PID.TID 0000.0001) %MON AngleCS_mean                 =   1.0000000000000E+00
(PID.TID 0000.0001) %MON AngleCS_sd                   =   0.0000000000000E+00
(PID.TID 0000.0001) %MON AngleSN_max                  =   0.0000000000000E+00
(PID.TID 0000.0001) %MON AngleSN_min                  =   0.0000000000000E+00
(PID.TID 0000.0001) %MON AngleSN_mean                 =   0.0000000000000E+00
(PID.TID 0000.0001) %MON AngleSN_sd                   =   0.0000000000000E+00
(PID.TID 0000.0001)  MDS_READ_FIELD: opening global file: bathy_3c_8000.bin
(PID.TID 0000.0001) // =======================================================
(PID.TID 0000.0001) // Field Model R_low (ini_masks_etc)
(PID.TID 0000.0001) // CMIN =         -1.000000000000000E+01
(PID.TID 0000.0001) // CMAX =         -1.000000000000000E+01
(PID.TID 0000.0001) // CINT =          0.000000000000000E+00
(PID.TID 0000.0001) // SYMBOLS (CMIN->CMAX): -abcdefghijklmnopqrstuvwxyz+
(PID.TID 0000.0001) //                  0.0: .
(PID.TID 0000.0001) // RANGE I (Lo:Hi:Step):(    -3:    69:     1)
(PID.TID 0000.0001) // RANGE J (Lo:Hi:Step):(    69:    -3:    -1)
(PID.TID 0000.0001) // RANGE K (Lo:Hi:Step):(   1:   1:   1)
(PID.TID 0000.0001) // =======================================================
(PID.TID 0000.0001) // =======================================================
(PID.TID 0000.0001) // END OF FIELD                                          =
(PID.TID 0000.0001) // =======================================================
(PID.TID 0000.0001) 
(PID.TID 0000.0001) // =======================================================
(PID.TID 0000.0001) // Field Model Ro_surf (ini_masks_etc)
(PID.TID 0000.0001) // CMIN =          1.000000000000000E+32
(PID.TID 0000.0001) // CMAX =         -1.000000000000000E+32
(PID.TID 0000.0001) // CINT =          0.000000000000000E+00
(PID.TID 0000.0001) // SYMBOLS (CMIN->CMAX): -abcdefghijklmnopqrstuvwxyz+
(PID.TID 0000.0001) //                  0.0: .
(PID.TID 0000.0001) // RANGE I (Lo:Hi:Step):(    -3:    69:     1)
(PID.TID 0000.0001) // RANGE J (Lo:Hi:Step):(    69:    -3:    -1)
(PID.TID 0000.0001) // RANGE K (Lo:Hi:Step):(   1:   1:   1)
(PID.TID 0000.0001) // =======================================================
(PID.TID 0000.0001) // =======================================================
(PID.TID 0000.0001) // END OF FIELD                                          =
(PID.TID 0000.0001) // =======================================================
(PID.TID 0000.0001) 
(PID.TID 0000.0001) // =======================================================
(PID.TID 0000.0001) // Field hFacC at iteration          0
(PID.TID 0000.0001) // CMIN =          1.000000000000000E+00
(PID.TID 0000.0001) // CMAX =          1.000000000000000E+00
(PID.TID 0000.0001) // CINT =          0.000000000000000E+00
(PID.TID 0000.0001) // SYMBOLS (CMIN->CMAX): -abcdefghijklmnopqrstuvwxyz+
(PID.TID 0000.0001) //                  0.0: .
(PID.TID 0000.0001) // RANGE I (Lo:Hi:Step):(    -3:    69:     1)
(PID.TID 0000.0001) // RANGE J (Lo:Hi:Step):(    69:    -3:    -1)
(PID.TID 0000.0001) // RANGE K (Lo:Hi:Step):(   1:   1:   1)
(PID.TID 0000.0001) // =======================================================
(PID.TID 0000.0001) // =======================================================
(PID.TID 0000.0001) // END OF FIELD                                          =
(PID.TID 0000.0001) // =======================================================
(PID.TID 0000.0001) 
(PID.TID 0000.0001) // =======================================================
(PID.TID 0000.0001) // Field hFacW at iteration          0
(PID.TID 0000.0001) // CMIN =          1.000000000000000E+00
(PID.TID 0000.0001) // CMAX =          1.000000000000000E+00
(PID.TID 0000.0001) // CINT =          0.000000000000000E+00
(PID.TID 0000.0001) // SYMBOLS (CMIN->CMAX): -abcdefghijklmnopqrstuvwxyz+
(PID.TID 0000.0001) //                  0.0: .
(PID.TID 0000.0001) // RANGE I (Lo:Hi:Step):(    -3:    69:     1)
(PID.TID 0000.0001) // RANGE J (Lo:Hi:Step):(    69:    -3:    -1)
(PID.TID 0000.0001) // RANGE K (Lo:Hi:Step):(   1:   1:   1)
(PID.TID 0000.0001) // =======================================================
(PID.TID 0000.0001) // =======================================================
(PID.TID 0000.0001) // END OF FIELD                                          =
(PID.TID 0000.0001) // =======================================================
(PID.TID 0000.0001) 
(PID.TID 0000.0001) // =======================================================
(PID.TID 0000.0001) // Field hFacS at iteration          0
(PID.TID 0000.0001) // CMIN =          1.000000000000000E+00
(PID.TID 0000.0001) // CMAX =          1.000000000000000E+00
(PID.TID 0000.0001) // CINT =          0.000000000000000E+00
(PID.TID 0000.0001) // SYMBOLS (CMIN->CMAX): -abcdefghijklmnopqrstuvwxyz+
(PID.TID 0000.0001) //                  0.0: .
(PID.TID 0000.0001) // RANGE I (Lo:Hi:Step):(    -3:    69:     1)
(PID.TID 0000.0001) // RANGE J (Lo:Hi:Step):(    69:    -3:    -1)
(PID.TID 0000.0001) // RANGE K (Lo:Hi:Step):(   1:   1:   1)
(PID.TID 0000.0001) // =======================================================
(PID.TID 0000.0001) // =======================================================
(PID.TID 0000.0001) // END OF FIELD                                          =
(PID.TID 0000.0001) // =======================================================
(PID.TID 0000.0001) 
(PID.TID 0000.0001) GAD_INIT_FIXED: GAD_OlMinSize=  0  0  1
(PID.TID 0000.0001) 
(PID.TID 0000.0001) // ===================================
(PID.TID 0000.0001) // GAD parameters :
(PID.TID 0000.0001) // ===================================
(PID.TID 0000.0001) tempAdvScheme =   /* Temp. Horiz.Advection scheme selector */
(PID.TID 0000.0001)                       2
(PID.TID 0000.0001)     ;
(PID.TID 0000.0001) tempVertAdvScheme =   /* Temp. Vert. Advection scheme selector */
(PID.TID 0000.0001)                       2
(PID.TID 0000.0001)     ;
(PID.TID 0000.0001) tempMultiDimAdvec =   /* use Muti-Dim Advec method for Temp */
(PID.TID 0000.0001)                   F
(PID.TID 0000.0001)     ;
(PID.TID 0000.0001) tempSOM_Advection = /* use 2nd Order Moment Advection for Temp */
(PID.TID 0000.0001)                   F
(PID.TID 0000.0001)     ;
(PID.TID 0000.0001) AdamsBashforthGt = /* apply Adams-Bashforth extrapolation on Gt */
(PID.TID 0000.0001)                   F
(PID.TID 0000.0001)     ;
(PID.TID 0000.0001) AdamsBashforth_T = /* apply Adams-Bashforth extrapolation on Temp */
(PID.TID 0000.0001)                   F
(PID.TID 0000.0001)     ;
(PID.TID 0000.0001) saltAdvScheme =   /* Salt. Horiz.advection scheme selector */
(PID.TID 0000.0001)                       2
(PID.TID 0000.0001)     ;
(PID.TID 0000.0001) saltVertAdvScheme =   /* Salt. Vert. Advection scheme selector */
(PID.TID 0000.0001)                       2
(PID.TID 0000.0001)     ;
(PID.TID 0000.0001) saltMultiDimAdvec =   /* use Muti-Dim Advec method for Salt */
(PID.TID 0000.0001)                   F
(PID.TID 0000.0001)     ;
(PID.TID 0000.0001) saltSOM_Advection = /* use 2nd Order Moment Advection for Salt */
(PID.TID 0000.0001)                   F
(PID.TID 0000.0001)     ;
(PID.TID 0000.0001) AdamsBashforthGs = /* apply Adams-Bashforth extrapolation on Gs */
(PID.TID 0000.0001)                   F
(PID.TID 0000.0001)     ;
(PID.TID 0000.0001) AdamsBashforth_S = /* apply Adams-Bashforth extrapolation on Salt */
(PID.TID 0000.0001)                   F
(PID.TID 0000.0001)     ;
(PID.TID 0000.0001) // ===================================
(PID.TID 0000.0001) 
(PID.TID 0000.0001) // =======================================================
(PID.TID 0000.0001) // External forcing (EXF) configuration >>> START <<<
(PID.TID 0000.0001) // =======================================================
(PID.TID 0000.0001) 
(PID.TID 0000.0001)  EXF general parameters:
(PID.TID 0000.0001) 
(PID.TID 0000.0001) exf_iprec = /* exf file precision */
(PID.TID 0000.0001)                      64
(PID.TID 0000.0001)     ;
(PID.TID 0000.0001) useExfYearlyFields = /* add extension _YEAR to input file names */
(PID.TID 0000.0001)                   F
(PID.TID 0000.0001)     ;
(PID.TID 0000.0001) twoDigitYear = /* use 2-digit year extension */
(PID.TID 0000.0001)                   F
(PID.TID 0000.0001)     ;
(PID.TID 0000.0001) useExfCheckRange = /* check for fields range */
(PID.TID 0000.0001)                   T
(PID.TID 0000.0001)     ;
(PID.TID 0000.0001) diags_opOceWeighted = /* weight flux diags by open-ocean fraction */
(PID.TID 0000.0001)                   T
(PID.TID 0000.0001)     ;
(PID.TID 0000.0001) exf_debugLev = /* select EXF-debug printing level */
(PID.TID 0000.0001)                       2
(PID.TID 0000.0001)     ;
(PID.TID 0000.0001) exf_monFreq  = /* EXF monitor frequency [ s ] */
(PID.TID 0000.0001)                 8.640000000000000E+07
(PID.TID 0000.0001)     ;
(PID.TID 0000.0001) exf_adjMonSelect = /* select group of exf AD-variables to monitor */
(PID.TID 0000.0001)                       1
(PID.TID 0000.0001)     ;
(PID.TID 0000.0001) repeatPeriod = /* period for cycling forcing dataset [ s ] */
(PID.TID 0000.0001)                 1.382400000000000E+06
(PID.TID 0000.0001)     ;
(PID.TID 0000.0001) climTempFreeze= /* Minimum climatological temperature [deg.C] */
(PID.TID 0000.0001)                -1.900000000000000E+00
(PID.TID 0000.0001)     ;
(PID.TID 0000.0001) windStressMax = /* Maximum absolute windstress [ Pa ] */
(PID.TID 0000.0001)                 2.000000000000000E+00
(PID.TID 0000.0001)     ;
(PID.TID 0000.0001) stressIsOnCgrid = /* set u,v_stress on Arakawa C-grid */
(PID.TID 0000.0001)                   F
(PID.TID 0000.0001)     ;
(PID.TID 0000.0001) rotateStressOnAgrid = /* rotate u,v_stress on Arakawa A-grid */
(PID.TID 0000.0001)                   F
(PID.TID 0000.0001)     ;
(PID.TID 0000.0001) cen2kel = /* conversion of deg. Centigrade to Kelvin [K] */
(PID.TID 0000.0001)                 2.731500000000000E+02
(PID.TID 0000.0001)     ;
(PID.TID 0000.0001) gravity_mks= /* gravitational acceleration [m/s^2] */
(PID.TID 0000.0001)                 9.810000000000000E+00
(PID.TID 0000.0001)     ;
(PID.TID 0000.0001) atmrho =  /* mean atmospheric density [kg/m^3] */
(PID.TID 0000.0001)                 1.300000000000000E+00
(PID.TID 0000.0001)     ;
(PID.TID 0000.0001) atmcp =  /* mean atmospheric specific heat [J/kg/K] */
(PID.TID 0000.0001)                 1.005000000000000E+03
(PID.TID 0000.0001)     ;
(PID.TID 0000.0001) flamb =  /* latent heat of evaporation [J/kg] */
(PID.TID 0000.0001)                 2.500000000000000E+06
(PID.TID 0000.0001)     ;
(PID.TID 0000.0001) flami =  /* latent heat of pure-ice melting [J/kg] */
(PID.TID 0000.0001)                 3.340000000000000E+05
(PID.TID 0000.0001)     ;
(PID.TID 0000.0001) cvapor_fac = /* const. for Saturation calculation [?] */
(PID.TID 0000.0001)                 6.403800000000000E+05
(PID.TID 0000.0001)     ;
(PID.TID 0000.0001) cvapor_exp = /* const. for Saturation calculation [?] */
(PID.TID 0000.0001)                 5.107400000000000E+03
(PID.TID 0000.0001)     ;
(PID.TID 0000.0001) cvapor_fac_ice= /* const. for Saturation calculation [?] */
(PID.TID 0000.0001)                 1.163780000000000E+07
(PID.TID 0000.0001)     ;
(PID.TID 0000.0001) cvapor_exp_ice= /* const. for Saturation calculation [?] */
(PID.TID 0000.0001)                 5.897800000000000E+03
(PID.TID 0000.0001)     ;
(PID.TID 0000.0001) humid_fac = /* humidity coef. in virtual temp. [(kg/kg)^-1] */
(PID.TID 0000.0001)                 6.060000000000000E-01
(PID.TID 0000.0001)     ;
(PID.TID 0000.0001) gamma_blk = /* adiabatic lapse rate [?] */
(PID.TID 0000.0001)                 1.000000000000000E-02
(PID.TID 0000.0001)     ;
(PID.TID 0000.0001) saltsat = /* reduction of Qsat over salty water [-] */
(PID.TID 0000.0001)                 9.800000000000000E-01
(PID.TID 0000.0001)     ;
(PID.TID 0000.0001) noNegativeEvap = /* prevent negative Evaporation */
(PID.TID 0000.0001)                   F
(PID.TID 0000.0001)     ;
(PID.TID 0000.0001) sstExtrapol = /* extrapolation coeff from lev. 1 & 2 to surf [-] */
(PID.TID 0000.0001)                 0.000000000000000E+00
(PID.TID 0000.0001)     ;
(PID.TID 0000.0001) cDrag_1 = /* coef used in drag calculation [?] */
(PID.TID 0000.0001)                 2.700000000000000E-03
(PID.TID 0000.0001)     ;
(PID.TID 0000.0001) cDrag_2 = /* coef used in drag calculation [?] */
(PID.TID 0000.0001)                 1.420000000000000E-04
(PID.TID 0000.0001)     ;
(PID.TID 0000.0001) cDrag_3 = /* coef used in drag calculation [?] */
(PID.TID 0000.0001)                 7.640000000000000E-05
(PID.TID 0000.0001)     ;
(PID.TID 0000.0001) cStanton_1 = /* coef used in Stanton number calculation [?] */
(PID.TID 0000.0001)                 3.270000000000000E-02
(PID.TID 0000.0001)     ;
(PID.TID 0000.0001) cStanton_2 = /* coef used in Stanton number calculation [?] */
(PID.TID 0000.0001)                 1.800000000000000E-02
(PID.TID 0000.0001)     ;
(PID.TID 0000.0001) cDalton = /* coef used in Dalton number calculation [?] */
(PID.TID 0000.0001)                 3.460000000000000E-02
(PID.TID 0000.0001)     ;
(PID.TID 0000.0001) exf_scal_BulkCdn= /* Drag coefficient scaling factor [-] */
(PID.TID 0000.0001)                 1.000000000000000E+00
(PID.TID 0000.0001)     ;
(PID.TID 0000.0001) zolmin = /* minimum stability parameter [?] */
(PID.TID 0000.0001)                -1.000000000000000E+02
(PID.TID 0000.0001)     ;
(PID.TID 0000.0001) psim_fac = /* coef used in turbulent fluxes calculation [-] */
(PID.TID 0000.0001)                 5.000000000000000E+00
(PID.TID 0000.0001)     ;
(PID.TID 0000.0001) zref =  /* reference height [ m ] */
(PID.TID 0000.0001)                 1.000000000000000E+01
(PID.TID 0000.0001)     ;
(PID.TID 0000.0001) hu =  /* height of mean wind [ m ] */
(PID.TID 0000.0001)                 1.000000000000000E+01
(PID.TID 0000.0001)     ;
(PID.TID 0000.0001) ht =  /* height of mean temperature [ m ] */
(PID.TID 0000.0001)                 2.000000000000000E+00
(PID.TID 0000.0001)     ;
(PID.TID 0000.0001) hq =  /* height of mean spec.humidity [ m ] */
(PID.TID 0000.0001)                 2.000000000000000E+00
(PID.TID 0000.0001)     ;
(PID.TID 0000.0001) uMin = /* minimum wind speed [m/s] */
(PID.TID 0000.0001)                 5.000000000000000E-01
(PID.TID 0000.0001)     ;
(PID.TID 0000.0001) useStabilityFct_overIce= /* transfert Coeffs over sea-ice depend on stability */
(PID.TID 0000.0001)                   F
(PID.TID 0000.0001)     ;
(PID.TID 0000.0001) exf_iceCd = /* drag coefficient over sea-ice (fixed) [-] */
(PID.TID 0000.0001)                 1.630000000000000E-03
(PID.TID 0000.0001)     ;
(PID.TID 0000.0001) exf_iceCe = /* transfert coeff. over sea-ice, for Evap (fixed) [-] */
(PID.TID 0000.0001)                 1.630000000000000E-03
(PID.TID 0000.0001)     ;
(PID.TID 0000.0001) exf_iceCh = /* transfert coeff. over sea-ice, Sens.Heat.(fixed)[-] */
(PID.TID 0000.0001)                 1.630000000000000E-03
(PID.TID 0000.0001)     ;
(PID.TID 0000.0001) exf_albedo =  /* Sea-water albedo [-] */
(PID.TID 0000.0001)                 1.000000000000000E-01
(PID.TID 0000.0001)     ;
(PID.TID 0000.0001) useExfZenAlbedo = /* Sea-water albedo varies with zenith angle */
(PID.TID 0000.0001)                   F
(PID.TID 0000.0001)     ;
(PID.TID 0000.0001) select_ZenAlbedo = /* Sea-water albedo computation method */
(PID.TID 0000.0001)                       0
(PID.TID 0000.0001)     ;
(PID.TID 0000.0001) useExfZenIncoming = /* compute incoming solar radiation */
(PID.TID 0000.0001)                   F
(PID.TID 0000.0001)     ;
(PID.TID 0000.0001) ocean_emissivity = /* longwave ocean-surface emissivity [-] */
(PID.TID 0000.0001)                 9.700176366843034E-01
(PID.TID 0000.0001)     ;
(PID.TID 0000.0001) ice_emissivity = /* longwave seaice emissivity [-] */
(PID.TID 0000.0001)                 9.500000000000000E-01
(PID.TID 0000.0001)     ;
(PID.TID 0000.0001) snow_emissivity = /* longwave snow  emissivity [-] */
(PID.TID 0000.0001)                 9.500000000000000E-01
(PID.TID 0000.0001)     ;
(PID.TID 0000.0001) 
(PID.TID 0000.0001)  EXF main CPP flags:
(PID.TID 0000.0001) 
(PID.TID 0000.0001) // USE_EXF_INTERPOLATION:          NOT defined
(PID.TID 0000.0001) // ALLOW_ATM_TEMP:                     defined
(PID.TID 0000.0001) // ALLOW_ATM_WIND (useAtmWind):        defined
(PID.TID 0000.0001) // ALLOW_DOWNWARD_RADIATION:           defined
(PID.TID 0000.0001) // ALLOW_BULKFORMULAE:                 defined
(PID.TID 0000.0001) 
(PID.TID 0000.0001)    Zonal wind forcing starts at                          0.
(PID.TID 0000.0001)    Zonal wind forcing period is                      10800.
(PID.TID 0000.0001)    Zonal wind forcing repeat-cycle is              1382400.
(PID.TID 0000.0001)    Zonal wind forcing is read from file:
(PID.TID 0000.0001)    >> Uwindfield_shifted_8000.bin <<
(PID.TID 0000.0001) 
(PID.TID 0000.0001)    Meridional wind forcing starts at                     0.
(PID.TID 0000.0001)    Meridional wind forcing period is                 10800.
(PID.TID 0000.0001)    Meridional wind forcing repeat-cycle is         1382400.
(PID.TID 0000.0001)    Meridional wind forcing is read from file:
(PID.TID 0000.0001)    >> Vwindfield_shifted_8000.bin <<
(PID.TID 0000.0001) 
(PID.TID 0000.0001) // ALLOW_READ_TURBFLUXES:          NOT defined
(PID.TID 0000.0001) // EXF_READ_EVAP:                  NOT defined
(PID.TID 0000.0001) // ALLOW_RUNOFF:                       defined
(PID.TID 0000.0001) // ALLOW_RUNOFTEMP:                NOT defined
(PID.TID 0000.0001) // ALLOW_SALTFLX:                      defined
(PID.TID 0000.0001) 
(PID.TID 0000.0001) // =======================================================
(PID.TID 0000.0001) // External forcing (EXF) climatology configuration :
(PID.TID 0000.0001) // =======================================================
(PID.TID 0000.0001) 
(PID.TID 0000.0001) // ALLOW_CLIMSST_RELAXATION:           defined
(PID.TID 0000.0001)    climsst relaxation is NOT used
(PID.TID 0000.0001) 
(PID.TID 0000.0001) // ALLOW_CLIMSSS_RELAXATION:           defined
(PID.TID 0000.0001)    climsss relaxation is NOT used
(PID.TID 0000.0001) 
(PID.TID 0000.0001) // =======================================================
(PID.TID 0000.0001) // External forcing (EXF) configuration  >>> END <<<
(PID.TID 0000.0001) // =======================================================
(PID.TID 0000.0001) 
(PID.TID 0000.0001) // =======================================================
(PID.TID 0000.0001) // Seaice configuration (SEAICE_PARM01) >>> START <<<
(PID.TID 0000.0001) // =======================================================
(PID.TID 0000.0001) 
(PID.TID 0000.0001)    Seaice time stepping configuration   > START <
(PID.TID 0000.0001)    ----------------------------------------------
(PID.TID 0000.0001) SEAICE_deltaTtherm= /* thermodynamic timestep */
(PID.TID 0000.0001)                 2.500000000000000E+00
(PID.TID 0000.0001)     ;
(PID.TID 0000.0001) SEAICE_deltaTdyn  = /* dynamic timestep */
(PID.TID 0000.0001)                 2.500000000000000E+00
(PID.TID 0000.0001)     ;
(PID.TID 0000.0001) SEAICE_deltaTevp  = /* EVP timestep */
(PID.TID 0000.0001)                 1.234567000000000E+05
(PID.TID 0000.0001)     ;
(PID.TID 0000.0001) SEAICEuseBDF2  = /* use backw. differencing for mom. eq. */
(PID.TID 0000.0001)                   F
(PID.TID 0000.0001)     ;
(PID.TID 0000.0001) SEAICEupdateOceanStress= /* update Ocean surf. stress */
(PID.TID 0000.0001)                   T
(PID.TID 0000.0001)     ;
(PID.TID 0000.0001) SEAICErestoreUnderIce  = /* restore T and S under ice */
(PID.TID 0000.0001)                   F
(PID.TID 0000.0001)     ;
(PID.TID 0000.0001) 
(PID.TID 0000.0001)    Seaice dynamics configuration   > START <
(PID.TID 0000.0001)    ------------------------------------------
(PID.TID 0000.0001) SEAICEuseDYNAMICS = /* use dynamics */
(PID.TID 0000.0001)                   T
(PID.TID 0000.0001)     ;
(PID.TID 0000.0001) model grid type   = /* type of sea ice model grid */
(PID.TID 0000.0001)               'C-GRID'
(PID.TID 0000.0001)     ;
(PID.TID 0000.0001) SEAICEuseStrImpCpl = /* use strongly implicit coupling */
(PID.TID 0000.0001)                   F
(PID.TID 0000.0001)     ;
(PID.TID 0000.0001) SEAICEusePicardAsPrecon = /* Picard as preconditioner */
(PID.TID 0000.0001)                   F
(PID.TID 0000.0001)     ;
(PID.TID 0000.0001) SEAICEuseLSR      = /* use default Picard-LSR solver */
(PID.TID 0000.0001)                   F
(PID.TID 0000.0001)     ;
(PID.TID 0000.0001) SEAICEuseKrylov   = /* use Picard-Krylov solver */
(PID.TID 0000.0001)                   T
(PID.TID 0000.0001)     ;
(PID.TID 0000.0001) SEAICEuseEVP      = /* use EVP solver rather than LSR */
(PID.TID 0000.0001)                   F
(PID.TID 0000.0001)     ;
(PID.TID 0000.0001) SEAICEuseJFNK     = /* use JFNK solver */
(PID.TID 0000.0001)                   F
(PID.TID 0000.0001)     ;
(PID.TID 0000.0001) SEAICEuseMEB      = /* use MEB rheology */
(PID.TID 0000.0001)                   T
(PID.TID 0000.0001)     ;
(PID.TID 0000.0001) SEAICENoisyIceStrength= /* Noise on Sea ice strength*/
(PID.TID 0000.0001)                   F
(PID.TID 0000.0001)     ;
(PID.TID 0000.0001) OCEAN_drag        = /* air-ocean drag coefficient */
(PID.TID 0000.0001)                 1.000000000000000E-03
(PID.TID 0000.0001)     ;
(PID.TID 0000.0001) SEAICE_drag       = /* air-ice drag coefficient */
(PID.TID 0000.0001)                 1.200000000000000E-03
(PID.TID 0000.0001)     ;
(PID.TID 0000.0001) SEAICE_drag_south      = /* Southern Ocean SEAICE_drag */
(PID.TID 0000.0001)                 1.200000000000000E-03
(PID.TID 0000.0001)     ;
(PID.TID 0000.0001) SEAICE_waterDrag  = /* water-ice drag (no units) */
(PID.TID 0000.0001)                 5.500000000000000E-03
(PID.TID 0000.0001)     ;
(PID.TID 0000.0001) SEAICE_waterDrag_south = /* Southern Ocean waterDrag (no units) */
(PID.TID 0000.0001)                 5.500000000000000E-03
(PID.TID 0000.0001)     ;
(PID.TID 0000.0001) SEAICEdWatMin = /* minimum linear water-ice drag (in m/s) */
(PID.TID 0000.0001)                 2.500000000000000E-01
(PID.TID 0000.0001)     ;
(PID.TID 0000.0001) SEAICEuseTilt     = /* include surface tilt in dyna. */
(PID.TID 0000.0001)                   T
(PID.TID 0000.0001)     ;
(PID.TID 0000.0001) SEAICEuseTEM      = /* use truncated ellipse rheology */
(PID.TID 0000.0001)                   F
(PID.TID 0000.0001)     ;
(PID.TID 0000.0001) SEAICEmebNormCorr = /* use normal stress correction */
(PID.TID 0000.0001)                   T
(PID.TID 0000.0001)     ;
(PID.TID 0000.0001) SEAICE_strength   = /* undamaged elasticity modulus */
(PID.TID 0000.0001)                 5.000000000000000E+08
(PID.TID 0000.0001)     ;
(PID.TID 0000.0001) SEAICEpoissonRatio = /* sea ice Poisson ratio */
(PID.TID 0000.0001)                 3.000000119209290E-01
(PID.TID 0000.0001)     ;
(PID.TID 0000.0001) SEAICEviscosity = /* MEB apparent viscosity */
(PID.TID 0000.0001)                 5.000000000000000E+15
(PID.TID 0000.0001)     ;
(PID.TID 0000.0001) SEAICEcohesion = /* max. cohesion in pure shear */
(PID.TID 0000.0001)                 2.500000000000000E+02
(PID.TID 0000.0001)     ;
(PID.TID 0000.0001) SEAICEdamageParm = /* exponent alpha of damage*/
(PID.TID 0000.0001)                 4.000000000000000E+00
(PID.TID 0000.0001)     ;
(PID.TID 0000.0001) SEAICEdamageTime = /* damage time scale */
(PID.TID 0000.0001)                 8.000000000000000E+00
(PID.TID 0000.0001)     ;
(PID.TID 0000.0001) SEAICEdamageMin = /* stability parameter */
(PID.TID 0000.0001)                 1.000000000000000E-16
(PID.TID 0000.0001)     ;
(PID.TID 0000.0001) SEAICEtanThetaCorr = /* MEB tan(correction path angle) */
(PID.TID 0000.0001)                 7.000000000000000E-01
(PID.TID 0000.0001)     ;
(PID.TID 0000.0001) SEAICEintFrictCoeff = /* MEB interal friction coeff. */
(PID.TID 0000.0001)                 7.000000000000000E-01
(PID.TID 0000.0001)     ;
(PID.TID 0000.0001) SEAICEmohrCoulombSlope = /* slope of M.-C. criterion in stress invariants space */
(PID.TID 0000.0001)                 5.734623443633283E-01
(PID.TID 0000.0001)     ;
(PID.TID 0000.0001) SEAICEhealingTime = /* damage healing time scale */
(PID.TID 0000.0001)                 1.000000000000000E+05
(PID.TID 0000.0001)     ;
(PID.TID 0000.0001) SEAICE_cStar      = /* sea-ice strength parameter cStar */
(PID.TID 0000.0001)                 2.000000000000000E+01
(PID.TID 0000.0001)     ;
(PID.TID 0000.0001) SEAICEpressReplFac= /* press. replacement method factor */
(PID.TID 0000.0001)                 1.000000000000000E+00
(PID.TID 0000.0001)     ;
(PID.TID 0000.0001) SEAICE_tensilFac  = /* sea-ice tensile strength factor */
(PID.TID 0000.0001)                 0.000000000000000E+00
(PID.TID 0000.0001)     ;
(PID.TID 0000.0001) SEAICE_tensilDepth= /* crit. depth for tensile strength */
(PID.TID 0000.0001)                 0.000000000000000E+00
(PID.TID 0000.0001)     ;
(PID.TID 0000.0001) SEAICEpresH0   = /* sea-ice strength Heff threshold */
(PID.TID 0000.0001)                 1.000000000000000E+00
(PID.TID 0000.0001)     ;
(PID.TID 0000.0001) SEAICEpresPow0 = /* exponent for Heff<SEAICEpresH0 */
(PID.TID 0000.0001)                       1
(PID.TID 0000.0001)     ;
(PID.TID 0000.0001) SEAICEpresPow1 = /* exponent for Heff>SEAICEpresH0 */
(PID.TID 0000.0001)                       1
(PID.TID 0000.0001)     ;
(PID.TID 0000.0001) SEAICEetaZmethod = /* method computing eta at Z-point */
(PID.TID 0000.0001)                       3
(PID.TID 0000.0001)     ;
(PID.TID 0000.0001) SEAICE_zetaMaxFac = /* factor for upper viscosity bound */
(PID.TID 0000.0001)                 2.500000000000000E+08
(PID.TID 0000.0001)     ;
(PID.TID 0000.0001) SEAICE_zetaMin    = /* lower bound for viscosity */
(PID.TID 0000.0001)                 0.000000000000000E+00
(PID.TID 0000.0001)     ;
(PID.TID 0000.0001) SEAICE_eccen    = /* elliptical yield curve eccent */
(PID.TID 0000.0001)                 2.000000000000000E+00
(PID.TID 0000.0001)     ;
(PID.TID 0000.0001) SEAICEstressFactor    = /* wind stress scaling factor */
(PID.TID 0000.0001)                 1.000000000000000E+00
(PID.TID 0000.0001)     ;
(PID.TID 0000.0001) SEAICE_airTurnAngle    = /* air-ice turning angle */
(PID.TID 0000.0001)                 0.000000000000000E+00
(PID.TID 0000.0001)     ;
(PID.TID 0000.0001) SEAICE_waterTurnAngle  = /* ice-water turning angle */
(PID.TID 0000.0001)                 0.000000000000000E+00
(PID.TID 0000.0001)     ;
(PID.TID 0000.0001) SEAICEuseMetricTerms = /* use metric terms */
(PID.TID 0000.0001)                   T
(PID.TID 0000.0001)     ;
(PID.TID 0000.0001) SEAICE_no_slip    = /* no slip boundary conditions */
(PID.TID 0000.0001)                   T
(PID.TID 0000.0001)     ;
(PID.TID 0000.0001) SEAICE_2ndOrderBC = /* 2nd order no slip boundary conditions */
(PID.TID 0000.0001)                   F
(PID.TID 0000.0001)     ;
(PID.TID 0000.0001) SEAICE_clipVeloctities = /* impose max. vels. */
(PID.TID 0000.0001)                   F
(PID.TID 0000.0001)     ;
(PID.TID 0000.0001) useHB87stressCoupling  = /* altern. ice-ocean stress */
(PID.TID 0000.0001)                   F
(PID.TID 0000.0001)     ;
(PID.TID 0000.0001) SEAICEscaleSurfStress  = /* scale atm. and ocean-surface stress with AREA */
(PID.TID 0000.0001)                   T
(PID.TID 0000.0001)     ;
(PID.TID 0000.0001) SEAICE_maskRHS    = /* mask RHS of solver */
(PID.TID 0000.0001)                   F
(PID.TID 0000.0001)     ;
(PID.TID 0000.0001) SEAICEaddSnowMass = /* add snow mass to seaiceMassC/U/V */
(PID.TID 0000.0001)                   T
(PID.TID 0000.0001)     ;
(PID.TID 0000.0001) LSR_mixIniGuess = /* mix free-drift sol. into LSR initial Guess */
(PID.TID 0000.0001)                      -1
(PID.TID 0000.0001)     ;
(PID.TID 0000.0001) SEAICE_LSRrelaxU  = /* LSR solver: relaxation parameter */
(PID.TID 0000.0001)                 9.500000000000000E-01
(PID.TID 0000.0001)     ;
(PID.TID 0000.0001) SEAICE_LSRrelaxV  = /* LSR solver: relaxation parameter */
(PID.TID 0000.0001)                 9.500000000000000E-01
(PID.TID 0000.0001)     ;
(PID.TID 0000.0001) LSR_ERROR         = /* sets accuracy of LSR solver */
(PID.TID 0000.0001)                 1.000000000000000E-05
(PID.TID 0000.0001)     ;
(PID.TID 0000.0001) SOLV_NCHECK       = /* test interval for LSR solver */
(PID.TID 0000.0001)                       2
(PID.TID 0000.0001)     ;
(PID.TID 0000.0001) SEAICEuseMultiTileSolver = /* use full domain tri-diag solver */
(PID.TID 0000.0001)                   F
(PID.TID 0000.0001)     ;
(PID.TID 0000.0001) SEAICE_OLx = /* overlap for LSR/preconditioner */
(PID.TID 0000.0001)                       2
(PID.TID 0000.0001)     ;
(PID.TID 0000.0001) SEAICE_OLy = /* overlap for LSR/preconditioner */
(PID.TID 0000.0001)                       2
(PID.TID 0000.0001)     ;
(PID.TID 0000.0001) SEAICEnonLinIterMax = /* max. number of nonlinear solver steps */
(PID.TID 0000.0001)                     100
(PID.TID 0000.0001)     ;
(PID.TID 0000.0001) SEAICElinearIterMax = /* max. number of linear solver steps */
(PID.TID 0000.0001)                      50
(PID.TID 0000.0001)     ;
(PID.TID 0000.0001) SEAICEnonLinTol     = /* non-linear solver tolerance */
(PID.TID 0000.0001)                 1.000000000000000E-12
(PID.TID 0000.0001)     ;
(PID.TID 0000.0001) SEAICEpreconLinIter = /* number of linear preconditioner steps */
(PID.TID 0000.0001)                      10
(PID.TID 0000.0001)     ;
(PID.TID 0000.0001) SEAICEpreconNL_Iter = /* number of non-linear preconditioner steps */
(PID.TID 0000.0001)                       0
(PID.TID 0000.0001)     ;
(PID.TID 0000.0001) SEAICEuseIMEX  = /* IMEX scheme with JFNK-solver */
(PID.TID 0000.0001)                   T
(PID.TID 0000.0001)     ;
(PID.TID 0000.0001) 
(PID.TID 0000.0001)    Seaice advection diffusion config,   > START <
(PID.TID 0000.0001)    -----------------------------------------------
(PID.TID 0000.0001) SEAICEmomAdvection = /* advect sea ice momentum */
(PID.TID 0000.0001)                   F
(PID.TID 0000.0001)     ;
(PID.TID 0000.0001) SEAICEadvHeff = /* advect effective ice thickness */
(PID.TID 0000.0001)                   T
(PID.TID 0000.0001)     ;
(PID.TID 0000.0001) SEAICEadvArea = /* advect fractional ice area */
(PID.TID 0000.0001)                   T
(PID.TID 0000.0001)     ;
(PID.TID 0000.0001) SEAICEadvSnow = /* advect snow layer together with ice */
(PID.TID 0000.0001)                   T
(PID.TID 0000.0001)     ;
(PID.TID 0000.0001) SEAICEadvStress = /* advect stress tensor */
(PID.TID 0000.0001)                   F
(PID.TID 0000.0001)     ;
(PID.TID 0000.0001) SEAICEadvScheme   = /* advection scheme for ice */
(PID.TID 0000.0001)                      77
(PID.TID 0000.0001)     ;
(PID.TID 0000.0001) SEAICEadvSchArea   = /* advection scheme for area */
(PID.TID 0000.0001)                      77
(PID.TID 0000.0001)     ;
(PID.TID 0000.0001) SEAICEadvSchHeff   = /* advection scheme for thickness */
(PID.TID 0000.0001)                      77
(PID.TID 0000.0001)     ;
(PID.TID 0000.0001) SEAICEadvSchSnow   = /* advection scheme for snow */
(PID.TID 0000.0001)                      77
(PID.TID 0000.0001)     ;
(PID.TID 0000.0001) SEAICEdiffKhArea   = /* diffusivity (m^2/s) for area */
(PID.TID 0000.0001)                 0.000000000000000E+00
(PID.TID 0000.0001)     ;
(PID.TID 0000.0001) SEAICEdiffKhHeff   = /* diffusivity (m^2/s) for heff */
(PID.TID 0000.0001)                 0.000000000000000E+00
(PID.TID 0000.0001)     ;
(PID.TID 0000.0001) SEAICEdiffKhSnow   = /* diffusivity (m^2/s) for snow */
(PID.TID 0000.0001)                 0.000000000000000E+00
(PID.TID 0000.0001)     ;
(PID.TID 0000.0001) DIFF1             = /* parameter used in advect.F [m/s] */
(PID.TID 0000.0001)                 0.000000000000000E+00
(PID.TID 0000.0001)     ;
(PID.TID 0000.0001) 
(PID.TID 0000.0001)    Seaice thermodynamics configuration   > START <
(PID.TID 0000.0001)    -----------------------------------------------
(PID.TID 0000.0001) SEAICE_rhoIce     = /* density of sea ice (kg/m3) */
(PID.TID 0000.0001)                 9.000000000000000E+02
(PID.TID 0000.0001)     ;
(PID.TID 0000.0001) SEAICE_rhoSnow    = /* density of snow (kg/m3) */
(PID.TID 0000.0001)                 3.300000000000000E+02
(PID.TID 0000.0001)     ;
(PID.TID 0000.0001) SEAICE_rhoAir     = /* density of air (kg/m3) */
(PID.TID 0000.0001)                 1.300000000000000E+00
(PID.TID 0000.0001)     ;
(PID.TID 0000.0001) usePW79thermodynamics  = /* default 0-layer TD */
(PID.TID 0000.0001)                   F
(PID.TID 0000.0001)     ;
(PID.TID 0000.0001)    pkg/seaice thermodynamics is OFF
(PID.TID 0000.0001) 
(PID.TID 0000.0001)    Seaice initialization and IO config.,   > START <
(PID.TID 0000.0001)    -------------------------------------------------
(PID.TID 0000.0001) SEAICE_initialHEFF= /* initial sea-ice thickness */
(PID.TID 0000.0001)                 0.000000000000000E+00
(PID.TID 0000.0001)     ;
(PID.TID 0000.0001) AreaFile = /* Initial ice concentration File */
(PID.TID 0000.0001)               'const_1.0_8000.bin'
(PID.TID 0000.0001)     ;
(PID.TID 0000.0001) HeffFile = /* Initial effective ice thickness File */
(PID.TID 0000.0001)               'thickness_aniso_8000.bin'
(PID.TID 0000.0001)     ;
(PID.TID 0000.0001) NoisFile = /* Noise field File */
(PID.TID 0000.0001)               ''
(PID.TID 0000.0001)     ;
(PID.TID 0000.0001) CohesFile = /* Initial sea ice cohesion File */
(PID.TID 0000.0001)               ''
(PID.TID 0000.0001)     ;
(PID.TID 0000.0001) HsnowFile = /* Initial snow thickness File */
(PID.TID 0000.0001)               'const_00_8000.bin'
(PID.TID 0000.0001)     ;
(PID.TID 0000.0001) uIceFile = /* Initial U-ice velocity File */
(PID.TID 0000.0001)               ''
(PID.TID 0000.0001)     ;
(PID.TID 0000.0001) vIceFile = /* Initial V-ice velocity File */
(PID.TID 0000.0001)               ''
(PID.TID 0000.0001)     ;
(PID.TID 0000.0001) SEAICEwriteState  = /* write sea ice state to file */
(PID.TID 0000.0001)                   T
(PID.TID 0000.0001)     ;
(PID.TID 0000.0001) SEAICE_monFreq  = /* monitor frequency */
(PID.TID 0000.0001)                 1.000000000000000E+00
(PID.TID 0000.0001)     ;
(PID.TID 0000.0001) SEAICE_dumpFreq   = /* dump frequency */
(PID.TID 0000.0001)                 0.000000000000000E+00
(PID.TID 0000.0001)     ;
(PID.TID 0000.0001) SEAICE_taveFreq   = /* time-averaging frequency */
(PID.TID 0000.0001)                 0.000000000000000E+00
(PID.TID 0000.0001)     ;
(PID.TID 0000.0001) SEAICE_mon_stdio  = /* write monitor to std-outp */
(PID.TID 0000.0001)                   T
(PID.TID 0000.0001)     ;
(PID.TID 0000.0001) SEAICE_dump_mdsio = /* write snap-shot   using MDSIO */
(PID.TID 0000.0001)                   T
(PID.TID 0000.0001)     ;
(PID.TID 0000.0001) SEAICE_tave_mdsio = /* write TimeAverage using MDSIO */
(PID.TID 0000.0001)                   T
(PID.TID 0000.0001)     ;
(PID.TID 0000.0001) 
(PID.TID 0000.0001)    Seaice regularization numbers,   > START <
(PID.TID 0000.0001)    -----------------------------------------------
(PID.TID 0000.0001) SEAICE_deltaMin   = /* reduce singularities in Delta */
(PID.TID 0000.0001)                 2.000000000000000E-09
(PID.TID 0000.0001)     ;
(PID.TID 0000.0001) SEAICE_EPS        = /* small number */
(PID.TID 0000.0001)                 1.000000000000000E-10
(PID.TID 0000.0001)     ;
(PID.TID 0000.0001) SEAICE_EPS_SQ     = /* small number squared */
(PID.TID 0000.0001)                 1.000000000000000E-20
(PID.TID 0000.0001)     ;
(PID.TID 0000.0001) SEAICE_area_reg   = /* reduce derivative singularities */
(PID.TID 0000.0001)                 1.000000000000000E-05
(PID.TID 0000.0001)     ;
(PID.TID 0000.0001) SEAICE_hice_reg   = /* reduce derivative singularities */
(PID.TID 0000.0001)                 5.000000000000000E-02
(PID.TID 0000.0001)     ;
(PID.TID 0000.0001) SEAICE_area_floor = /* reduce derivative singularities */
(PID.TID 0000.0001)                 1.000000000000000E-05
(PID.TID 0000.0001)     ;
(PID.TID 0000.0001) 
(PID.TID 0000.0001) // =======================================================
(PID.TID 0000.0001) // Seaice configuration (SEAICE_PARM01) >>> END <<<
(PID.TID 0000.0001) // =======================================================
(PID.TID 0000.0001) 
(PID.TID 0000.0001) ------------------------------------------------------------
(PID.TID 0000.0001) DIAGNOSTICS_SET_LEVELS: done
(PID.TID 0000.0001)  Total Nb of available Diagnostics: ndiagt=   233
(PID.TID 0000.0001)  write list of available Diagnostics to file: available_diagnostics.log
(PID.TID 0000.0001) SETDIAG: Allocate  1 x  1 Levels for Diagnostic #   163 SIuice
(PID.TID 0000.0001) SETDIAG: Allocate  1 x  1 Levels for Diagnostic #   164 SIvice
(PID.TID 0000.0001) SETDIAG: Allocate  1 x  1 Levels for Diagnostic #   149 SIheff
(PID.TID 0000.0001) SETDIAG: Allocate  1 x  1 Levels for Diagnostic #   146 SIarea
(PID.TID 0000.0001) SETDIAG: Allocate  1 x  1 Levels for Diagnostic #   228 SIshear
(PID.TID 0000.0001) SETDIAG: Allocate  1 x  1 Levels for Diagnostic #   233 SIcohes
(PID.TID 0000.0001) SETDIAG: Allocate  1 x  1 Levels for Diagnostic #   221 SIsig1
(PID.TID 0000.0001) SETDIAG: Allocate  1 x  1 Levels for Diagnostic #   222 SIsig2
(PID.TID 0000.0001) SETDIAG: Allocate  1 x  1 Levels for Diagnostic #   231 SIdamage
(PID.TID 0000.0001) SETDIAG: Allocate  1 x  1 Levels for Diagnostic #   165 SItaux
(PID.TID 0000.0001) SETDIAG: Allocate  1 x  1 Levels for Diagnostic #   166 SItauy
(PID.TID 0000.0001) SETDIAG: Allocate  1 x  1 Levels for Diagnostic #   133 EXFuwind
(PID.TID 0000.0001) SETDIAG: Allocate  1 x  1 Levels for Diagnostic #   134 EXFvwind
(PID.TID 0000.0001)   space allocated for all diagnostics:      13 levels
(PID.TID 0000.0001)   set mate pointer for diag #   163  SIuice   , Parms: UU      M1 , mate:   164
(PID.TID 0000.0001)   set mate pointer for diag #   164  SIvice   , Parms: VV      M1 , mate:   163
(PID.TID 0000.0001)   set mate pointer for diag #   165  SItaux   , Parms: UU      U1 , mate:   166
(PID.TID 0000.0001)   set mate pointer for diag #   166  SItauy   , Parms: VV      U1 , mate:   165
(PID.TID 0000.0001) DIAGNOSTICS_SET_POINTERS: Set levels for Outp.Stream: snapshot
(PID.TID 0000.0001)  Levels:       1.
(PID.TID 0000.0001) DIAGNOSTICS_SET_POINTERS: done
(PID.TID 0000.0001) ------------------------------------------------------------
(PID.TID 0000.0001) DIAGSTATS_SET_REGIONS: define no region
(PID.TID 0000.0001) ------------------------------------------------------------
(PID.TID 0000.0001)   space allocated for all stats-diags:       0 levels
(PID.TID 0000.0001) DIAGSTATS_SET_POINTERS: done
(PID.TID 0000.0001) ------------------------------------------------------------
(PID.TID 0000.0001) %MON fCori_max                    =   1.5116000000000E-04
(PID.TID 0000.0001) %MON fCori_min                    =   1.4604000000000E-04
(PID.TID 0000.0001) %MON fCori_mean                   =   1.4860000000000E-04
(PID.TID 0000.0001) %MON fCori_sd                     =   1.5009330431435E-06
(PID.TID 0000.0001) %MON fCoriG_max                   =   1.5112000000000E-04
(PID.TID 0000.0001) %MON fCoriG_min                   =   1.4600000000000E-04
(PID.TID 0000.0001) %MON fCoriG_mean                  =   1.4856000000000E-04
(PID.TID 0000.0001) %MON fCoriG_sd                    =   1.5009330431435E-06
(PID.TID 0000.0001) %MON fCoriCos_max                 =   0.0000000000000E+00
(PID.TID 0000.0001) %MON fCoriCos_min                 =   0.0000000000000E+00
(PID.TID 0000.0001) %MON fCoriCos_mean                =   0.0000000000000E+00
(PID.TID 0000.0001) %MON fCoriCos_sd                  =   0.0000000000000E+00
(PID.TID 0000.0001) INI_CG2D: CG2D normalisation factor =  1.0000000000000001E-01
(PID.TID 0000.0001) 
(PID.TID 0000.0001) // =======================================================
(PID.TID 0000.0001) // Model configuration
(PID.TID 0000.0001) // =======================================================
(PID.TID 0000.0001) //
(PID.TID 0000.0001) // "Physical" paramters ( PARM01 in namelist )
(PID.TID 0000.0001) //
(PID.TID 0000.0001) buoyancyRelation = /* Type of relation to get Buoyancy */
(PID.TID 0000.0001)               'OCEANIC'
(PID.TID 0000.0001)     ;
(PID.TID 0000.0001) fluidIsAir   =  /* fluid major constituent is Air */
(PID.TID 0000.0001)                   F
(PID.TID 0000.0001)     ;
(PID.TID 0000.0001) fluidIsWater =  /* fluid major constituent is Water */
(PID.TID 0000.0001)                   T
(PID.TID 0000.0001)     ;
(PID.TID 0000.0001) usingPCoords =  /* use p (or p*) vertical coordinate */
(PID.TID 0000.0001)                   F
(PID.TID 0000.0001)     ;
(PID.TID 0000.0001) usingZCoords =  /* use z (or z*) vertical coordinate */
(PID.TID 0000.0001)                   T
(PID.TID 0000.0001)     ;
(PID.TID 0000.0001) tRef =   /* Reference temperature profile ( oC or K ) */
(PID.TID 0000.0001)                -1.620000000000000E+00       /* K =  1 */
(PID.TID 0000.0001)     ;
(PID.TID 0000.0001) sRef =   /* Reference salinity profile ( g/kg ) */
(PID.TID 0000.0001)                 3.000000000000000E+01       /* K =  1 */
(PID.TID 0000.0001)     ;
(PID.TID 0000.0001) useStrainTensionVisc= /* Use StrainTension Form of Viscous Operator */
(PID.TID 0000.0001)                   F
(PID.TID 0000.0001)     ;
(PID.TID 0000.0001) useVariableVisc = /* Use variable horizontal viscosity */
(PID.TID 0000.0001)                   F
(PID.TID 0000.0001)     ;
(PID.TID 0000.0001) useHarmonicVisc = /* Use harmonic horizontal viscosity */
(PID.TID 0000.0001)                   F
(PID.TID 0000.0001)     ;
(PID.TID 0000.0001) useBiharmonicVisc= /* Use biharmonic horiz.  viscosity */
(PID.TID 0000.0001)                   F
(PID.TID 0000.0001)     ;
(PID.TID 0000.0001) useSmag3D = /* Use isotropic 3-D Smagorinsky viscosity */
(PID.TID 0000.0001)                   F
(PID.TID 0000.0001)     ;
(PID.TID 0000.0001) viscAh  =   /* Lateral harmonic viscosity ( m^2/s ) */
(PID.TID 0000.0001)                 0.000000000000000E+00
(PID.TID 0000.0001)     ;
(PID.TID 0000.0001) viscA4  =   /* Lateral biharmonic viscosity ( m^4/s ) */
(PID.TID 0000.0001)                 0.000000000000000E+00
(PID.TID 0000.0001)     ;
(PID.TID 0000.0001) no_slip_sides =  /* Viscous BCs: No-slip sides */
(PID.TID 0000.0001)                   T
(PID.TID 0000.0001)     ;
(PID.TID 0000.0001) sideDragFactor = /* side-drag scaling factor (non-dim) */
(PID.TID 0000.0001)                 2.000000000000000E+00
(PID.TID 0000.0001)     ;
(PID.TID 0000.0001) viscArNr = /* vertical profile of vertical viscosity ( m^2/s )*/
(PID.TID 0000.0001)                 0.000000000000000E+00       /* K =  1 */
(PID.TID 0000.0001)     ;
(PID.TID 0000.0001) no_slip_bottom =  /* Viscous BCs: No-slip bottom */
(PID.TID 0000.0001)                   T
(PID.TID 0000.0001)     ;
(PID.TID 0000.0001) bottomVisc_pCell = /* Partial-cell in bottom Visc. BC */
(PID.TID 0000.0001)                   F
(PID.TID 0000.0001)     ;
(PID.TID 0000.0001) bottomDragLinear = /* linear bottom-drag coefficient ( m/s ) */
(PID.TID 0000.0001)                 0.000000000000000E+00
(PID.TID 0000.0001)     ;
(PID.TID 0000.0001) bottomDragQuadratic = /* quadratic bottom-drag coefficient (-) */
(PID.TID 0000.0001)                 0.000000000000000E+00
(PID.TID 0000.0001)     ;
(PID.TID 0000.0001) selectBotDragQuadr = /* select quadratic bottom drag options */
(PID.TID 0000.0001)                      -1
(PID.TID 0000.0001)     ;
(PID.TID 0000.0001) diffKhT =   /* Laplacian diffusion of heat laterally ( m^2/s ) */
(PID.TID 0000.0001)                 0.000000000000000E+00
(PID.TID 0000.0001)     ;
(PID.TID 0000.0001) diffK4T =   /* Biharmonic diffusion of heat laterally ( m^4/s ) */
(PID.TID 0000.0001)                 0.000000000000000E+00
(PID.TID 0000.0001)     ;
(PID.TID 0000.0001) diffKhS =   /* Laplacian diffusion of salt laterally ( m^2/s ) */
(PID.TID 0000.0001)                 0.000000000000000E+00
(PID.TID 0000.0001)     ;
(PID.TID 0000.0001) diffK4S =   /* Biharmonic diffusion of salt laterally ( m^4/s ) */
(PID.TID 0000.0001)                 0.000000000000000E+00
(PID.TID 0000.0001)     ;
(PID.TID 0000.0001) diffKrNrT = /* vertical profile of vertical diffusion of Temp ( m^2/s )*/
(PID.TID 0000.0001)                 0.000000000000000E+00       /* K =  1 */
(PID.TID 0000.0001)     ;
(PID.TID 0000.0001) diffKrNrS = /* vertical profile of vertical diffusion of Salt ( m^2/s )*/
(PID.TID 0000.0001)                 0.000000000000000E+00       /* K =  1 */
(PID.TID 0000.0001)     ;
(PID.TID 0000.0001) diffKrBL79surf = /* Surface diffusion for Bryan and Lewis 79 ( m^2/s ) */
(PID.TID 0000.0001)                 0.000000000000000E+00
(PID.TID 0000.0001)     ;
(PID.TID 0000.0001) diffKrBL79deep = /* Deep diffusion for Bryan and Lewis 1979 ( m^2/s ) */
(PID.TID 0000.0001)                 0.000000000000000E+00
(PID.TID 0000.0001)     ;
(PID.TID 0000.0001) diffKrBL79scl = /* Depth scale for Bryan and Lewis 1979 ( m ) */
(PID.TID 0000.0001)                 2.000000000000000E+02
(PID.TID 0000.0001)     ;
(PID.TID 0000.0001) diffKrBL79Ho = /* Turning depth for Bryan and Lewis 1979 ( m ) */
(PID.TID 0000.0001)                -2.000000000000000E+03
(PID.TID 0000.0001)     ;
(PID.TID 0000.0001) ivdc_kappa = /* Implicit Vertical Diffusivity for Convection ( m^2/s) */
(PID.TID 0000.0001)                 0.000000000000000E+00
(PID.TID 0000.0001)     ;
(PID.TID 0000.0001) hMixCriteria=  /* Criteria for mixed-layer diagnostic */
(PID.TID 0000.0001)                -8.000000000000000E-01
(PID.TID 0000.0001)     ;
(PID.TID 0000.0001) dRhoSmall =  /* Parameter for mixed-layer diagnostic */
(PID.TID 0000.0001)                 1.000000000000000E-06
(PID.TID 0000.0001)     ;
(PID.TID 0000.0001) hMixSmooth=  /* Smoothing parameter for mixed-layer diagnostic */
(PID.TID 0000.0001)                 0.000000000000000E+00
(PID.TID 0000.0001)     ;
(PID.TID 0000.0001) eosType =  /* Type of Equation of State */
(PID.TID 0000.0001)               'LINEAR'
(PID.TID 0000.0001)     ;
(PID.TID 0000.0001) tAlpha = /* Linear EOS thermal expansion coefficient ( 1/oC ) */
(PID.TID 0000.0001)                 2.000000000000000E-04
(PID.TID 0000.0001)     ;
(PID.TID 0000.0001) sBeta  = /* Linear EOS haline contraction coefficient ( 1/(g/kg) ) */
(PID.TID 0000.0001)                 7.400000000000000E-04
(PID.TID 0000.0001)     ;
(PID.TID 0000.0001) rhoNil    = /* Reference density for Linear EOS ( kg/m^3 ) */
(PID.TID 0000.0001)                 1.026000000000000E+03
(PID.TID 0000.0001)     ;
(PID.TID 0000.0001) selectP_inEOS_Zc = /* select pressure to use in EOS (0,1,2,3) */
(PID.TID 0000.0001)                       0
(PID.TID 0000.0001)     0= -g*rhoConst*z ; 1= pRef (from tRef,sRef); 2= Hyd P ; 3= Hyd+NH P
(PID.TID 0000.0001)     ;
(PID.TID 0000.0001) surf_pRef = /* Surface reference pressure ( Pa ) */
(PID.TID 0000.0001)                 1.013250000000000E+05
(PID.TID 0000.0001)     ;
(PID.TID 0000.0001) HeatCapacity_Cp =  /* Specific heat capacity ( J/kg/K ) */
(PID.TID 0000.0001)                 3.986000000000000E+03
(PID.TID 0000.0001)     ;
(PID.TID 0000.0001) celsius2K = /* 0 degree Celsius converted to Kelvin ( K ) */
(PID.TID 0000.0001)                 2.731500000000000E+02
(PID.TID 0000.0001)     ;
(PID.TID 0000.0001) rhoConst  = /* Reference density (Boussinesq)  ( kg/m^3 ) */
(PID.TID 0000.0001)                 1.026000000000000E+03
(PID.TID 0000.0001)     ;
(PID.TID 0000.0001) rhoFacC = /* normalized Reference density @ cell-Center (-) */
(PID.TID 0000.0001)                 1.000000000000000E+00       /* K =  1 */
(PID.TID 0000.0001)     ;
(PID.TID 0000.0001) rhoFacF = /* normalized Reference density @ W-Interface (-) */
(PID.TID 0000.0001)     2 @  1.000000000000000E+00              /* K =  1:  2 */
(PID.TID 0000.0001)     ;
(PID.TID 0000.0001) rhoConstFresh = /* Fresh-water reference density ( kg/m^3 ) */
(PID.TID 0000.0001)                 1.000000000000000E+03
(PID.TID 0000.0001)     ;
(PID.TID 0000.0001) gravity =   /* Gravitational acceleration ( m/s^2 ) */
(PID.TID 0000.0001)                 9.810000000000000E+00
(PID.TID 0000.0001)     ;
(PID.TID 0000.0001) gBaro =   /* Barotropic gravity ( m/s^2 ) */
(PID.TID 0000.0001)                 9.810000000000000E+00
(PID.TID 0000.0001)     ;
(PID.TID 0000.0001) gravFacC = /* gravity factor (vs surf.) @ cell-Center (-) */
(PID.TID 0000.0001)                 1.000000000000000E+00       /* K =  1 */
(PID.TID 0000.0001)     ;
(PID.TID 0000.0001) gravFacF = /* gravity factor (vs surf.) @ W-Interface (-) */
(PID.TID 0000.0001)     2 @  1.000000000000000E+00              /* K =  1:  2 */
(PID.TID 0000.0001)     ;
(PID.TID 0000.0001) rotationPeriod =   /* Rotation Period ( s ) */
(PID.TID 0000.0001)                 8.616400000000000E+04
(PID.TID 0000.0001)     ;
(PID.TID 0000.0001) omega =   /* Angular velocity ( rad/s ) */
(PID.TID 0000.0001)                 7.292123516990375E-05
(PID.TID 0000.0001)     ;
(PID.TID 0000.0001) f0 =   /* Reference coriolis parameter ( 1/s ) */
(PID.TID 0000.0001)                 1.460000000000000E-04
(PID.TID 0000.0001)     ;
(PID.TID 0000.0001) beta =   /* Beta ( 1/(m.s) ) */
(PID.TID 0000.0001)                 9.999999999999999E-12
(PID.TID 0000.0001)     ;
(PID.TID 0000.0001) fPrime =   /* Second coriolis parameter ( 1/s ) */
(PID.TID 0000.0001)                 0.000000000000000E+00
(PID.TID 0000.0001)     ;
(PID.TID 0000.0001) rigidLid =   /* Rigid lid on/off flag */
(PID.TID 0000.0001)                   F
(PID.TID 0000.0001)     ;
(PID.TID 0000.0001) implicitFreeSurface =   /* Implicit free surface on/off flag */
(PID.TID 0000.0001)                   T
(PID.TID 0000.0001)     ;
(PID.TID 0000.0001) freeSurfFac =   /* Implicit free surface factor */
(PID.TID 0000.0001)                 1.000000000000000E+00
(PID.TID 0000.0001)     ;
(PID.TID 0000.0001) implicSurfPress =  /* Surface Pressure implicit factor (0-1) */
(PID.TID 0000.0001)                 1.000000000000000E+00
(PID.TID 0000.0001)     ;
(PID.TID 0000.0001) implicDiv2DFlow =  /* Barot. Flow Div. implicit factor (0-1) */
(PID.TID 0000.0001)                 1.000000000000000E+00
(PID.TID 0000.0001)     ;
(PID.TID 0000.0001) uniformLin_PhiSurf = /* use uniform Bo_surf on/off flag */
(PID.TID 0000.0001)                   T
(PID.TID 0000.0001)     ;
(PID.TID 0000.0001) uniformFreeSurfLev = /* free-surface level-index is uniform */
(PID.TID 0000.0001)                   T
(PID.TID 0000.0001)     ;
(PID.TID 0000.0001) sIceLoadFac =  /* scale factor for sIceLoad (0-1) */
(PID.TID 0000.0001)                 1.000000000000000E+00
(PID.TID 0000.0001)     ;
(PID.TID 0000.0001) hFacMin =   /* minimum partial cell factor (hFac) */
(PID.TID 0000.0001)                 1.000000000000000E+00
(PID.TID 0000.0001)     ;
(PID.TID 0000.0001) hFacMinDr = /* minimum partial cell thickness ( m) */
(PID.TID 0000.0001)                 0.000000000000000E+00
(PID.TID 0000.0001)     ;
(PID.TID 0000.0001) exactConserv =  /* Exact Volume Conservation on/off flag */
(PID.TID 0000.0001)                   F
(PID.TID 0000.0001)     ;
(PID.TID 0000.0001) linFSConserveTr = /* Tracer correction for Lin Free Surface on/off flag */
(PID.TID 0000.0001)                   F
(PID.TID 0000.0001)     ;
(PID.TID 0000.0001) nonlinFreeSurf = /* Non-linear Free Surf. options (-1,0,1,2,3)*/
(PID.TID 0000.0001)                       0
(PID.TID 0000.0001)      -1,0= Off ; 1,2,3= On, 2=+rescale gU,gV, 3=+update cg2d solv.
(PID.TID 0000.0001)     ;
(PID.TID 0000.0001) hFacInf =   /* lower threshold for hFac (nonlinFreeSurf only)*/
(PID.TID 0000.0001)                 2.000000000000000E-01
(PID.TID 0000.0001)     ;
(PID.TID 0000.0001) hFacSup =   /* upper threshold for hFac (nonlinFreeSurf only)*/
(PID.TID 0000.0001)                 2.000000000000000E+00
(PID.TID 0000.0001)     ;
(PID.TID 0000.0001) select_rStar = /* r* Vertical coord. options (=0 r coord.; >0 uses r*)*/
(PID.TID 0000.0001)                       0
(PID.TID 0000.0001)     ;
(PID.TID 0000.0001) useRealFreshWaterFlux = /* Real Fresh Water Flux on/off flag*/
(PID.TID 0000.0001)                   F
(PID.TID 0000.0001)     ;
(PID.TID 0000.0001) temp_EvPrRn = /* Temp. of Evap/Prec/R (UNSET=use local T)(oC)*/
(PID.TID 0000.0001)                 1.234567000000000E+05
(PID.TID 0000.0001)     ;
(PID.TID 0000.0001) salt_EvPrRn = /* Salin. of Evap/Prec/R (UNSET=use local S)(g/kg)*/
(PID.TID 0000.0001)                 0.000000000000000E+00
(PID.TID 0000.0001)     ;
(PID.TID 0000.0001) selectAddFluid = /* option for mass source/sink of fluid (=0: off) */
(PID.TID 0000.0001)                       0
(PID.TID 0000.0001)     ;
(PID.TID 0000.0001) temp_addMass = /* Temp. of addMass array (UNSET=use local T)(oC)*/
(PID.TID 0000.0001)                 1.234567000000000E+05
(PID.TID 0000.0001)     ;
(PID.TID 0000.0001) salt_addMass = /* Salin. of addMass array (UNSET=use local S)(g/kg)*/
(PID.TID 0000.0001)                 0.000000000000000E+00
(PID.TID 0000.0001)     ;
(PID.TID 0000.0001) convertFW2Salt = /* convert F.W. Flux to Salt Flux (-1=use local S)(g/kg)*/
(PID.TID 0000.0001)                 3.500000000000000E+01
(PID.TID 0000.0001)     ;
(PID.TID 0000.0001) use3Dsolver = /* use 3-D pressure solver on/off flag */
(PID.TID 0000.0001)                   F
(PID.TID 0000.0001)     ;
(PID.TID 0000.0001) nonHydrostatic =  /* Non-Hydrostatic on/off flag */
(PID.TID 0000.0001)                   F
(PID.TID 0000.0001)     ;
(PID.TID 0000.0001) nh_Am2 = /* Non-Hydrostatic terms scaling factor */
(PID.TID 0000.0001)                 1.000000000000000E+00
(PID.TID 0000.0001)     ;
(PID.TID 0000.0001) implicitNHPress = /* Non-Hyd Pressure implicit factor (0-1)*/
(PID.TID 0000.0001)                 1.000000000000000E+00
(PID.TID 0000.0001)     ;
(PID.TID 0000.0001) selectNHfreeSurf = /* Non-Hyd (free-)Surface option */
(PID.TID 0000.0001)                       0
(PID.TID 0000.0001)     ;
(PID.TID 0000.0001) quasiHydrostatic = /* Quasi-Hydrostatic on/off flag */
(PID.TID 0000.0001)                   F
(PID.TID 0000.0001)     ;
(PID.TID 0000.0001) calc_wVelocity = /* vertical velocity calculation on/off flag */
(PID.TID 0000.0001)                   F
(PID.TID 0000.0001)     ;
(PID.TID 0000.0001) momStepping =  /* Momentum equation on/off flag */
(PID.TID 0000.0001)                   F
(PID.TID 0000.0001)     ;
(PID.TID 0000.0001) vectorInvariantMomentum= /* Vector-Invariant Momentum on/off */
(PID.TID 0000.0001)                   F
(PID.TID 0000.0001)     ;
(PID.TID 0000.0001) momAdvection =  /* Momentum advection on/off flag */
(PID.TID 0000.0001)                   F
(PID.TID 0000.0001)     ;
(PID.TID 0000.0001) momViscosity =  /* Momentum viscosity on/off flag */
(PID.TID 0000.0001)                   F
(PID.TID 0000.0001)     ;
(PID.TID 0000.0001) momImplVertAdv= /* Momentum implicit vert. advection on/off*/
(PID.TID 0000.0001)                   F
(PID.TID 0000.0001)     ;
(PID.TID 0000.0001) implicitViscosity = /* Implicit viscosity on/off flag */
(PID.TID 0000.0001)                   F
(PID.TID 0000.0001)     ;
(PID.TID 0000.0001) selectImplicitDrag= /* Implicit bot Drag options (0,1,2)*/
(PID.TID 0000.0001)                       0
(PID.TID 0000.0001)     0= Expl. ; 1= Impl. on provis. Vel ; 2= Fully Impl (with surf.P)
(PID.TID 0000.0001)     ;
(PID.TID 0000.0001) metricTerms =  /* metric-Terms on/off flag */
(PID.TID 0000.0001)                   F
(PID.TID 0000.0001)     ;
(PID.TID 0000.0001) useNHMTerms = /* Non-Hydrostatic Metric-Terms on/off */
(PID.TID 0000.0001)                   F
(PID.TID 0000.0001)     ;
(PID.TID 0000.0001) selectCoriMap = /* Coriolis Map options (0,1,2,3)*/
(PID.TID 0000.0001)                       1
(PID.TID 0000.0001)     0= f-Plane ; 1= Beta-Plane ; 2= Spherical ; 3= read from file
(PID.TID 0000.0001)     ;
(PID.TID 0000.0001) use3dCoriolis = /* 3-D Coriolis on/off flag */
(PID.TID 0000.0001)                   F
(PID.TID 0000.0001)     ;
(PID.TID 0000.0001) useCoriolis =  /* Coriolis on/off flag */
(PID.TID 0000.0001)                   F
(PID.TID 0000.0001)     ;
(PID.TID 0000.0001) useCDscheme =  /* CD scheme on/off flag */
(PID.TID 0000.0001)                   F
(PID.TID 0000.0001)     ;
(PID.TID 0000.0001) selectCoriScheme= /* Scheme selector for Coriolis-Term */
(PID.TID 0000.0001)                       0
(PID.TID 0000.0001)    = 0 : original discretization (simple averaging, no hFac)
(PID.TID 0000.0001)    = 1 : Wet-point averaging (Jamar & Ozer 1986)
(PID.TID 0000.0001)    = 2 : energy conserving scheme (no hFac weight)
(PID.TID 0000.0001)    = 3 : energy conserving scheme using Wet-point averaging
(PID.TID 0000.0001)     ;
(PID.TID 0000.0001) momForcing =  /* Momentum forcing on/off flag */
(PID.TID 0000.0001)                   F
(PID.TID 0000.0001)     ;
(PID.TID 0000.0001) momPressureForcing =  /* Momentum pressure term on/off flag */
(PID.TID 0000.0001)                   F
(PID.TID 0000.0001)     ;
(PID.TID 0000.0001) implicitIntGravWave= /* Implicit Internal Gravity Wave flag */
(PID.TID 0000.0001)                   F
(PID.TID 0000.0001)     ;
(PID.TID 0000.0001) staggerTimeStep =    /* Stagger time stepping on/off flag */
(PID.TID 0000.0001)                   F
(PID.TID 0000.0001)     ;
(PID.TID 0000.0001) doResetHFactors = /* reset thickness factors @ each time-step */
(PID.TID 0000.0001)                   F
(PID.TID 0000.0001)     ;
(PID.TID 0000.0001) multiDimAdvection =  /* enable/disable Multi-Dim Advection */
(PID.TID 0000.0001)                   T
(PID.TID 0000.0001)     ;
(PID.TID 0000.0001) useMultiDimAdvec =   /* Multi-Dim Advection is/is-not used */
(PID.TID 0000.0001)                   F
(PID.TID 0000.0001)     ;
(PID.TID 0000.0001) implicitDiffusion = /* Implicit Diffusion on/off flag */
(PID.TID 0000.0001)                   F
(PID.TID 0000.0001)     ;
(PID.TID 0000.0001) tempStepping =  /* Temperature equation on/off flag */
(PID.TID 0000.0001)                   F
(PID.TID 0000.0001)     ;
(PID.TID 0000.0001) tempAdvection = /* Temperature advection on/off flag */
(PID.TID 0000.0001)                   F
(PID.TID 0000.0001)     ;
(PID.TID 0000.0001) tempImplVertAdv = /* Temp. implicit vert. advection on/off */
(PID.TID 0000.0001)                   F
(PID.TID 0000.0001)     ;
(PID.TID 0000.0001) tempForcing  =  /* Temperature forcing on/off flag */
(PID.TID 0000.0001)                   F
(PID.TID 0000.0001)     ;
(PID.TID 0000.0001) doThetaClimRelax = /* apply SST relaxation on/off flag */
(PID.TID 0000.0001)                   F
(PID.TID 0000.0001)     ;
(PID.TID 0000.0001) tempIsActiveTr = /* Temp. is a dynamically Active Tracer */
(PID.TID 0000.0001)                   F
(PID.TID 0000.0001)     ;
(PID.TID 0000.0001) saltStepping =  /* Salinity equation on/off flag */
(PID.TID 0000.0001)                   F
(PID.TID 0000.0001)     ;
(PID.TID 0000.0001) saltAdvection = /* Salinity advection on/off flag */
(PID.TID 0000.0001)                   F
(PID.TID 0000.0001)     ;
(PID.TID 0000.0001) saltImplVertAdv = /* Sali. implicit vert. advection on/off */
(PID.TID 0000.0001)                   F
(PID.TID 0000.0001)     ;
(PID.TID 0000.0001) saltForcing  =  /* Salinity forcing on/off flag */
(PID.TID 0000.0001)                   F
(PID.TID 0000.0001)     ;
(PID.TID 0000.0001) doSaltClimRelax = /* apply SSS relaxation on/off flag */
(PID.TID 0000.0001)                   F
(PID.TID 0000.0001)     ;
(PID.TID 0000.0001) saltIsActiveTr = /* Salt  is a dynamically Active Tracer */
(PID.TID 0000.0001)                   F
(PID.TID 0000.0001)     ;
(PID.TID 0000.0001)  readBinaryPrec = /* Precision used for reading binary files */
(PID.TID 0000.0001)                      64
(PID.TID 0000.0001)     ;
(PID.TID 0000.0001) writeBinaryPrec = /* Precision used for writing binary files */
(PID.TID 0000.0001)                      32
(PID.TID 0000.0001)     ;
(PID.TID 0000.0001)  rwSuffixType =   /* select format of mds file suffix */
(PID.TID 0000.0001)                       0
(PID.TID 0000.0001)    = 0 : myIter (I10.10) ;   = 1 : 100*myTime (100th sec) ;
(PID.TID 0000.0001)    = 2 : myTime (seconds);   = 3 : myTime/360 (10th of hr);
(PID.TID 0000.0001)    = 4 : myTime/3600 (hours)
(PID.TID 0000.0001)     ;
(PID.TID 0000.0001)  globalFiles = /* write "global" (=not per tile) files */
(PID.TID 0000.0001)                   F
(PID.TID 0000.0001)     ;
(PID.TID 0000.0001)  useSingleCpuIO = /* only master MPI process does I/O */
(PID.TID 0000.0001)                   T
(PID.TID 0000.0001)     ;
(PID.TID 0000.0001)  useSingleCpuInput = /* only master process reads input */
(PID.TID 0000.0001)                   T
(PID.TID 0000.0001)     ;
(PID.TID 0000.0001) /* debLev[*]  : level of debug & auxiliary message printing */
(PID.TID 0000.0001) debLevZero =  0 ; /* level of disabled aux. msg printing */
(PID.TID 0000.0001)    debLevA =  1 ; /* level of minimum  aux. msg printing */
(PID.TID 0000.0001)    debLevB =  2 ; /* level of low aux. print (report read-file opening)*/
(PID.TID 0000.0001)    debLevC =  3 ; /* level of moderate debug prt (most pkgs debug msg) */
(PID.TID 0000.0001)    debLevD =  4 ; /* level of enhanced debug prt (add DEBUG_STATS prt) */
(PID.TID 0000.0001)    debLevE =  5 ; /* level of extensive debug printing */
(PID.TID 0000.0001) debugLevel =  /* select debug printing level */
(PID.TID 0000.0001)                       2
(PID.TID 0000.0001)     ;
(PID.TID 0000.0001)  plotLevel =  /* select PLOT_FIELD printing level */
(PID.TID 0000.0001)                       2
(PID.TID 0000.0001)     ;
(PID.TID 0000.0001) //
(PID.TID 0000.0001) // Elliptic solver(s) paramters ( PARM02 in namelist )
(PID.TID 0000.0001) //
(PID.TID 0000.0001) cg2dMaxIters =   /* Upper limit on 2d con. grad iterations  */
(PID.TID 0000.0001)                     500
(PID.TID 0000.0001)     ;
(PID.TID 0000.0001) cg2dMinItersNSA =   /* Minimum number of iterations of 2d con. grad solver  */
(PID.TID 0000.0001)                       0
(PID.TID 0000.0001)     ;
(PID.TID 0000.0001) cg2dUseMinResSol= /* use cg2d last-iter(=0) / min-resid.(=1) solution */
(PID.TID 0000.0001)                       0
(PID.TID 0000.0001)     ;
(PID.TID 0000.0001) cg2dTargetResidual =   /* 2d con. grad target residual  */
(PID.TID 0000.0001)                 1.000000000000000E-12
(PID.TID 0000.0001)     ;
(PID.TID 0000.0001) cg2dTargetResWunit =   /* CG2d target residual [W units] */
(PID.TID 0000.0001)                -1.000000000000000E+00
(PID.TID 0000.0001)     ;
(PID.TID 0000.0001) cg2dPreCondFreq =   /* Freq. for updating cg2d preconditioner */
(PID.TID 0000.0001)                       1
(PID.TID 0000.0001)     ;
(PID.TID 0000.0001) useSRCGSolver =  /* use single reduction CG solver(s) */
(PID.TID 0000.0001)                   F
(PID.TID 0000.0001)     ;
(PID.TID 0000.0001) useNSACGSolver =  /* use not-self-adjoint CG solver */
(PID.TID 0000.0001)                   F
(PID.TID 0000.0001)     ;
(PID.TID 0000.0001) printResidualFreq = /* Freq. for printing CG residual */
(PID.TID 0000.0001)                       0
(PID.TID 0000.0001)     ;
(PID.TID 0000.0001) //
(PID.TID 0000.0001) // Time stepping paramters ( PARM03 in namelist )
(PID.TID 0000.0001) //
(PID.TID 0000.0001) deltaTMom =   /* Momentum equation timestep ( s ) */
(PID.TID 0000.0001)                 2.500000000000000E+00
(PID.TID 0000.0001)     ;
(PID.TID 0000.0001) deltaTFreeSurf = /* FreeSurface equation timestep ( s ) */
(PID.TID 0000.0001)                 2.500000000000000E+00
(PID.TID 0000.0001)     ;
(PID.TID 0000.0001) dTtracerLev =  /* Tracer equation timestep ( s ) */
(PID.TID 0000.0001)                 2.500000000000000E+00       /* K =  1 */
(PID.TID 0000.0001)     ;
(PID.TID 0000.0001) deltaTClock  =   /* Model clock timestep ( s ) */
(PID.TID 0000.0001)                 2.500000000000000E+00
(PID.TID 0000.0001)     ;
(PID.TID 0000.0001) cAdjFreq =   /* Convective adjustment interval ( s ) */
(PID.TID 0000.0001)                 0.000000000000000E+00
(PID.TID 0000.0001)     ;
(PID.TID 0000.0001) momForcingOutAB = /* =1: take Momentum Forcing out of Adams-Bash. stepping */
(PID.TID 0000.0001)                       1
(PID.TID 0000.0001)     ;
(PID.TID 0000.0001) tracForcingOutAB = /* =1: take T,S,pTr Forcing out of Adams-Bash. stepping */
(PID.TID 0000.0001)                       1
(PID.TID 0000.0001)     ;
(PID.TID 0000.0001) momDissip_In_AB = /* put Dissipation Tendency in Adams-Bash. stepping */
(PID.TID 0000.0001)                   T
(PID.TID 0000.0001)     ;
(PID.TID 0000.0001) doAB_onGtGs = /* apply AB on Tendencies (rather than on T,S)*/
(PID.TID 0000.0001)                   T
(PID.TID 0000.0001)     ;
(PID.TID 0000.0001) abEps =   /* Adams-Bashforth-2 stabilizing weight */
(PID.TID 0000.0001)                 1.000000000000000E-01
(PID.TID 0000.0001)     ;
(PID.TID 0000.0001) applyExchUV_early = /* Apply EXCH to U,V earlier in time-step */
(PID.TID 0000.0001)                   F
(PID.TID 0000.0001)     ;
(PID.TID 0000.0001) pickupStrictlyMatch= /* stop if pickup do not strictly match */
(PID.TID 0000.0001)                   T
(PID.TID 0000.0001)     ;
(PID.TID 0000.0001) nIter0   =   /* Run starting timestep number */
(PID.TID 0000.0001)                       0
(PID.TID 0000.0001)     ;
(PID.TID 0000.0001) nTimeSteps = /* Number of timesteps */
(PID.TID 0000.0001)                      20
(PID.TID 0000.0001)     ;
(PID.TID 0000.0001) nEndIter =   /* Run ending timestep number */
(PID.TID 0000.0001)                      20
(PID.TID 0000.0001)     ;
(PID.TID 0000.0001) baseTime =   /* Model base time ( s ) */
(PID.TID 0000.0001)                 0.000000000000000E+00
(PID.TID 0000.0001)     ;
(PID.TID 0000.0001) startTime =  /* Run start time ( s ) */
(PID.TID 0000.0001)                 0.000000000000000E+00
(PID.TID 0000.0001)     ;
(PID.TID 0000.0001) endTime  =   /* Integration ending time ( s ) */
(PID.TID 0000.0001)                 5.000000000000000E+01
(PID.TID 0000.0001)     ;
(PID.TID 0000.0001) pChkPtFreq = /* Permanent restart/pickup file interval ( s ) */
(PID.TID 0000.0001)                 0.000000000000000E+00
(PID.TID 0000.0001)     ;
(PID.TID 0000.0001) chkPtFreq  = /* Rolling restart/pickup file interval ( s ) */
(PID.TID 0000.0001)                 0.000000000000000E+00
(PID.TID 0000.0001)     ;
(PID.TID 0000.0001) pickup_write_mdsio =   /* Model IO flag. */
(PID.TID 0000.0001)                   T
(PID.TID 0000.0001)     ;
(PID.TID 0000.0001) pickup_read_mdsio =   /* Model IO flag. */
(PID.TID 0000.0001)                   T
(PID.TID 0000.0001)     ;
(PID.TID 0000.0001) writePickupAtEnd =   /* Model IO flag. */
(PID.TID 0000.0001)                   T
(PID.TID 0000.0001)     ;
(PID.TID 0000.0001) dumpFreq =   /* Model state write out interval ( s ). */
(PID.TID 0000.0001)                 0.000000000000000E+00
(PID.TID 0000.0001)     ;
(PID.TID 0000.0001) dumpInitAndLast= /* write out Initial & Last iter. model state */
(PID.TID 0000.0001)                   T
(PID.TID 0000.0001)     ;
(PID.TID 0000.0001) snapshot_mdsio =   /* Model IO flag. */
(PID.TID 0000.0001)                   T
(PID.TID 0000.0001)     ;
(PID.TID 0000.0001) monitorFreq =   /* Monitor output interval ( s ). */
(PID.TID 0000.0001)                 2.500000000000000E+00
(PID.TID 0000.0001)     ;
(PID.TID 0000.0001) monitorSelect = /* select group of variables to monitor */
(PID.TID 0000.0001)                       2
(PID.TID 0000.0001)     ;
(PID.TID 0000.0001) monitor_stdio =   /* Model IO flag. */
(PID.TID 0000.0001)                   T
(PID.TID 0000.0001)     ;
(PID.TID 0000.0001) externForcingPeriod =   /* forcing period (s) */
(PID.TID 0000.0001)                 0.000000000000000E+00
(PID.TID 0000.0001)     ;
(PID.TID 0000.0001) externForcingCycle =   /* period of the cyle (s). */
(PID.TID 0000.0001)                 0.000000000000000E+00
(PID.TID 0000.0001)     ;
(PID.TID 0000.0001) tauThetaClimRelax =   /* relaxation time scale (s) */
(PID.TID 0000.0001)                 0.000000000000000E+00
(PID.TID 0000.0001)     ;
(PID.TID 0000.0001) tauSaltClimRelax =   /* relaxation time scale (s) */
(PID.TID 0000.0001)                 0.000000000000000E+00
(PID.TID 0000.0001)     ;
(PID.TID 0000.0001) latBandClimRelax =   /* max. Lat. where relaxation */
(PID.TID 0000.0001)                 1.560000000000000E+06
(PID.TID 0000.0001)     ;
(PID.TID 0000.0001) //
(PID.TID 0000.0001) // Gridding paramters ( PARM04 in namelist )
(PID.TID 0000.0001) //
(PID.TID 0000.0001) usingCartesianGrid = /* Cartesian coordinates flag ( True/False ) */
(PID.TID 0000.0001)                   T
(PID.TID 0000.0001)     ;
(PID.TID 0000.0001) usingCylindricalGrid = /* Cylindrical coordinates flag ( True/False ) */
(PID.TID 0000.0001)                   F
(PID.TID 0000.0001)     ;
(PID.TID 0000.0001) usingSphericalPolarGrid = /* Spherical coordinates flag ( True/False ) */
(PID.TID 0000.0001)                   F
(PID.TID 0000.0001)     ;
(PID.TID 0000.0001) usingCurvilinearGrid = /* Curvilinear coordinates flag ( True/False ) */
(PID.TID 0000.0001)                   F
(PID.TID 0000.0001)     ;
(PID.TID 0000.0001) useMin4hFacEdges = /* set hFacW,S as minimum of adjacent hFacC factor */
(PID.TID 0000.0001)                   F
(PID.TID 0000.0001)     ;
(PID.TID 0000.0001) interViscAr_pCell = /* account for partial-cell in interior vert. viscosity */
(PID.TID 0000.0001)                   F
(PID.TID 0000.0001)     ;
(PID.TID 0000.0001) interDiffKr_pCell = /* account for partial-cell in interior vert. diffusion */
(PID.TID 0000.0001)                   F
(PID.TID 0000.0001)     ;
(PID.TID 0000.0001) pCellMix_select = /* option to enhance mixing near surface & bottom */
(PID.TID 0000.0001)                       0
(PID.TID 0000.0001)     ;
(PID.TID 0000.0001) selectSigmaCoord = /* Hybrid-Sigma Vert. Coordinate option */
(PID.TID 0000.0001)                       0
(PID.TID 0000.0001)     ;
(PID.TID 0000.0001) rSigmaBnd = /* r/sigma transition ( units of r ==  m ) */
(PID.TID 0000.0001)                 1.234567000000000E+05
(PID.TID 0000.0001)     ;
(PID.TID 0000.0001) rkSign =   /* index orientation relative to vertical coordinate */
(PID.TID 0000.0001)                -1.000000000000000E+00
(PID.TID 0000.0001)     ;
(PID.TID 0000.0001) gravitySign = /* gravity orientation relative to vertical coordinate */
(PID.TID 0000.0001)                -1.000000000000000E+00
(PID.TID 0000.0001)     ;
(PID.TID 0000.0001) seaLev_Z =  /* reference height of sea-level [m] */
(PID.TID 0000.0001)                 0.000000000000000E+00
(PID.TID 0000.0001)     ;
(PID.TID 0000.0001) top_Pres =  /* reference pressure at the top [Pa] */
(PID.TID 0000.0001)                 0.000000000000000E+00
(PID.TID 0000.0001)     ;
(PID.TID 0000.0001) mass2rUnit = /* convert mass per unit area [kg/m2] to r-units [m] */
(PID.TID 0000.0001)                 9.746588693957114E-04
(PID.TID 0000.0001)     ;
(PID.TID 0000.0001) rUnit2mass = /* convert r-units [m] to mass per unit area [kg/m2] */
(PID.TID 0000.0001)                 1.026000000000000E+03
(PID.TID 0000.0001)     ;
(PID.TID 0000.0001) drC =   /* C spacing ( units of r ) */
(PID.TID 0000.0001)     2 @  5.000000000000000E+00              /* K =  1:  2 */
(PID.TID 0000.0001)     ;
(PID.TID 0000.0001) drF =   /* W spacing ( units of r ) */
(PID.TID 0000.0001)                 1.000000000000000E+01       /* K =  1 */
(PID.TID 0000.0001)     ;
(PID.TID 0000.0001) delX = /* U spacing ( m - cartesian, degrees - spherical ) */
(PID.TID 0000.0001)    65 @  8.000000000000000E+03              /* I =  1: 65 */
(PID.TID 0000.0001)     ;
(PID.TID 0000.0001) delY = /* V spacing ( m - cartesian, degrees - spherical ) */
(PID.TID 0000.0001)    65 @  8.000000000000000E+03              /* J =  1: 65 */
(PID.TID 0000.0001)     ;
(PID.TID 0000.0001) xgOrigin = /* X-axis origin of West  edge (cartesian: m, lat-lon: deg) */
(PID.TID 0000.0001)                 0.000000000000000E+00
(PID.TID 0000.0001)     ;
(PID.TID 0000.0001) ygOrigin = /* Y-axis origin of South edge (cartesian: m, lat-lon: deg) */
(PID.TID 0000.0001)                 0.000000000000000E+00
(PID.TID 0000.0001)     ;
(PID.TID 0000.0001) rSphere =  /* Radius ( ignored - cartesian, m - spherical ) */
(PID.TID 0000.0001)                 6.370000000000000E+06
(PID.TID 0000.0001)     ;
(PID.TID 0000.0001) deepAtmosphere = /* Deep/Shallow Atmosphere flag (True/False) */
(PID.TID 0000.0001)                   F
(PID.TID 0000.0001)     ;
(PID.TID 0000.0001) xC =  /* xC(:,1,:,1) : P-point X coord ( deg. or m if cartesian) */
(PID.TID 0000.0001)                 4.000000000000000E+03,      /* I =  1 */
(PID.TID 0000.0001)                 1.200000000000000E+04,      /* I =  2 */
(PID.TID 0000.0001)                 2.000000000000000E+04,      /* I =  3 */
(PID.TID 0000.0001)                 2.800000000000000E+04,      /* I =  4 */
(PID.TID 0000.0001)                 3.600000000000000E+04,      /* I =  5 */
(PID.TID 0000.0001)                 4.400000000000000E+04,      /* I =  6 */
(PID.TID 0000.0001)                 5.200000000000000E+04,      /* I =  7 */
(PID.TID 0000.0001)                 6.000000000000000E+04,      /* I =  8 */
(PID.TID 0000.0001)                 6.800000000000000E+04,      /* I =  9 */
(PID.TID 0000.0001)                 7.600000000000000E+04,      /* I = 10 */
(PID.TID 0000.0001)                 8.400000000000000E+04,      /* I = 11 */
(PID.TID 0000.0001)                 9.200000000000000E+04,      /* I = 12 */
(PID.TID 0000.0001)                 1.000000000000000E+05,      /* I = 13 */
(PID.TID 0000.0001)                 1.080000000000000E+05,      /* I = 14 */
(PID.TID 0000.0001)                 1.160000000000000E+05,      /* I = 15 */
(PID.TID 0000.0001)                 1.240000000000000E+05,      /* I = 16 */
(PID.TID 0000.0001)                 1.320000000000000E+05,      /* I = 17 */
(PID.TID 0000.0001)                 1.400000000000000E+05,      /* I = 18 */
(PID.TID 0000.0001)                 1.480000000000000E+05,      /* I = 19 */
(PID.TID 0000.0001)                 1.560000000000000E+05,      /* I = 20 */
(PID.TID 0000.0001)                 1.640000000000000E+05,      /* I = 21 */
(PID.TID 0000.0001)                 1.720000000000000E+05,      /* I = 22 */
(PID.TID 0000.0001)                 1.800000000000000E+05,      /* I = 23 */
(PID.TID 0000.0001)                 1.880000000000000E+05,      /* I = 24 */
(PID.TID 0000.0001)                 1.960000000000000E+05,      /* I = 25 */
(PID.TID 0000.0001)                 2.040000000000000E+05,      /* I = 26 */
(PID.TID 0000.0001)                 2.120000000000000E+05,      /* I = 27 */
(PID.TID 0000.0001)                 2.200000000000000E+05,      /* I = 28 */
(PID.TID 0000.0001)                 2.280000000000000E+05,      /* I = 29 */
(PID.TID 0000.0001)                 2.360000000000000E+05,      /* I = 30 */
(PID.TID 0000.0001)                 2.440000000000000E+05,      /* I = 31 */
(PID.TID 0000.0001)                 2.520000000000000E+05,      /* I = 32 */
(PID.TID 0000.0001)                 2.600000000000000E+05,      /* I = 33 */
(PID.TID 0000.0001)                 2.680000000000000E+05,      /* I = 34 */
(PID.TID 0000.0001)                 2.760000000000000E+05,      /* I = 35 */
(PID.TID 0000.0001)                 2.840000000000000E+05,      /* I = 36 */
(PID.TID 0000.0001)                 2.920000000000000E+05,      /* I = 37 */
(PID.TID 0000.0001)                 3.000000000000000E+05,      /* I = 38 */
(PID.TID 0000.0001)                 3.080000000000000E+05,      /* I = 39 */
(PID.TID 0000.0001)                 3.160000000000000E+05,      /* I = 40 */
(PID.TID 0000.0001)                 3.240000000000000E+05,      /* I = 41 */
(PID.TID 0000.0001)                 3.320000000000000E+05,      /* I = 42 */
(PID.TID 0000.0001)                 3.400000000000000E+05,      /* I = 43 */
(PID.TID 0000.0001)                 3.480000000000000E+05,      /* I = 44 */
(PID.TID 0000.0001)                 3.560000000000000E+05,      /* I = 45 */
(PID.TID 0000.0001)                 3.640000000000000E+05,      /* I = 46 */
(PID.TID 0000.0001)                 3.720000000000000E+05,      /* I = 47 */
(PID.TID 0000.0001)                 3.800000000000000E+05,      /* I = 48 */
(PID.TID 0000.0001)                 3.880000000000000E+05,      /* I = 49 */
(PID.TID 0000.0001)                 3.960000000000000E+05,      /* I = 50 */
(PID.TID 0000.0001)                 4.040000000000000E+05,      /* I = 51 */
(PID.TID 0000.0001)                 4.120000000000000E+05,      /* I = 52 */
(PID.TID 0000.0001)                 4.200000000000000E+05,      /* I = 53 */
(PID.TID 0000.0001)                 4.280000000000000E+05,      /* I = 54 */
(PID.TID 0000.0001)                 4.360000000000000E+05,      /* I = 55 */
(PID.TID 0000.0001)                 4.440000000000000E+05,      /* I = 56 */
(PID.TID 0000.0001)                 4.520000000000000E+05,      /* I = 57 */
(PID.TID 0000.0001)                 4.600000000000000E+05,      /* I = 58 */
(PID.TID 0000.0001)                 4.680000000000000E+05,      /* I = 59 */
(PID.TID 0000.0001)                 4.760000000000000E+05,      /* I = 60 */
(PID.TID 0000.0001)                 4.840000000000000E+05,      /* I = 61 */
(PID.TID 0000.0001)                 4.920000000000000E+05,      /* I = 62 */
(PID.TID 0000.0001)                 5.000000000000000E+05,      /* I = 63 */
(PID.TID 0000.0001)                 5.080000000000000E+05,      /* I = 64 */
(PID.TID 0000.0001)                 5.160000000000000E+05       /* I = 65 */
(PID.TID 0000.0001)     ;
(PID.TID 0000.0001) yC =  /* yC(1,:,1,:) : P-point Y coord ( deg. or m if cartesian) */
(PID.TID 0000.0001)                 4.000000000000000E+03,      /* J =  1 */
(PID.TID 0000.0001)                 1.200000000000000E+04,      /* J =  2 */
(PID.TID 0000.0001)                 2.000000000000000E+04,      /* J =  3 */
(PID.TID 0000.0001)                 2.800000000000000E+04,      /* J =  4 */
(PID.TID 0000.0001)                 3.600000000000000E+04,      /* J =  5 */
(PID.TID 0000.0001)                 4.400000000000000E+04,      /* J =  6 */
(PID.TID 0000.0001)                 5.200000000000000E+04,      /* J =  7 */
(PID.TID 0000.0001)                 6.000000000000000E+04,      /* J =  8 */
(PID.TID 0000.0001)                 6.800000000000000E+04,      /* J =  9 */
(PID.TID 0000.0001)                 7.600000000000000E+04,      /* J = 10 */
(PID.TID 0000.0001)                 8.400000000000000E+04,      /* J = 11 */
(PID.TID 0000.0001)                 9.200000000000000E+04,      /* J = 12 */
(PID.TID 0000.0001)                 1.000000000000000E+05,      /* J = 13 */
(PID.TID 0000.0001)                 1.080000000000000E+05,      /* J = 14 */
(PID.TID 0000.0001)                 1.160000000000000E+05,      /* J = 15 */
(PID.TID 0000.0001)                 1.240000000000000E+05,      /* J = 16 */
(PID.TID 0000.0001)                 1.320000000000000E+05,      /* J = 17 */
(PID.TID 0000.0001)                 1.400000000000000E+05,      /* J = 18 */
(PID.TID 0000.0001)                 1.480000000000000E+05,      /* J = 19 */
(PID.TID 0000.0001)                 1.560000000000000E+05,      /* J = 20 */
(PID.TID 0000.0001)                 1.640000000000000E+05,      /* J = 21 */
(PID.TID 0000.0001)                 1.720000000000000E+05,      /* J = 22 */
(PID.TID 0000.0001)                 1.800000000000000E+05,      /* J = 23 */
(PID.TID 0000.0001)                 1.880000000000000E+05,      /* J = 24 */
(PID.TID 0000.0001)                 1.960000000000000E+05,      /* J = 25 */
(PID.TID 0000.0001)                 2.040000000000000E+05,      /* J = 26 */
(PID.TID 0000.0001)                 2.120000000000000E+05,      /* J = 27 */
(PID.TID 0000.0001)                 2.200000000000000E+05,      /* J = 28 */
(PID.TID 0000.0001)                 2.280000000000000E+05,      /* J = 29 */
(PID.TID 0000.0001)                 2.360000000000000E+05,      /* J = 30 */
(PID.TID 0000.0001)                 2.440000000000000E+05,      /* J = 31 */
(PID.TID 0000.0001)                 2.520000000000000E+05,      /* J = 32 */
(PID.TID 0000.0001)                 2.600000000000000E+05,      /* J = 33 */
(PID.TID 0000.0001)                 2.680000000000000E+05,      /* J = 34 */
(PID.TID 0000.0001)                 2.760000000000000E+05,      /* J = 35 */
(PID.TID 0000.0001)                 2.840000000000000E+05,      /* J = 36 */
(PID.TID 0000.0001)                 2.920000000000000E+05,      /* J = 37 */
(PID.TID 0000.0001)                 3.000000000000000E+05,      /* J = 38 */
(PID.TID 0000.0001)                 3.080000000000000E+05,      /* J = 39 */
(PID.TID 0000.0001)                 3.160000000000000E+05,      /* J = 40 */
(PID.TID 0000.0001)                 3.240000000000000E+05,      /* J = 41 */
(PID.TID 0000.0001)                 3.320000000000000E+05,      /* J = 42 */
(PID.TID 0000.0001)                 3.400000000000000E+05,      /* J = 43 */
(PID.TID 0000.0001)                 3.480000000000000E+05,      /* J = 44 */
(PID.TID 0000.0001)                 3.560000000000000E+05,      /* J = 45 */
(PID.TID 0000.0001)                 3.640000000000000E+05,      /* J = 46 */
(PID.TID 0000.0001)                 3.720000000000000E+05,      /* J = 47 */
(PID.TID 0000.0001)                 3.800000000000000E+05,      /* J = 48 */
(PID.TID 0000.0001)                 3.880000000000000E+05,      /* J = 49 */
(PID.TID 0000.0001)                 3.960000000000000E+05,      /* J = 50 */
(PID.TID 0000.0001)                 4.040000000000000E+05,      /* J = 51 */
(PID.TID 0000.0001)                 4.120000000000000E+05,      /* J = 52 */
(PID.TID 0000.0001)                 4.200000000000000E+05,      /* J = 53 */
(PID.TID 0000.0001)                 4.280000000000000E+05,      /* J = 54 */
(PID.TID 0000.0001)                 4.360000000000000E+05,      /* J = 55 */
(PID.TID 0000.0001)                 4.440000000000000E+05,      /* J = 56 */
(PID.TID 0000.0001)                 4.520000000000000E+05,      /* J = 57 */
(PID.TID 0000.0001)                 4.600000000000000E+05,      /* J = 58 */
(PID.TID 0000.0001)                 4.680000000000000E+05,      /* J = 59 */
(PID.TID 0000.0001)                 4.760000000000000E+05,      /* J = 60 */
(PID.TID 0000.0001)                 4.840000000000000E+05,      /* J = 61 */
(PID.TID 0000.0001)                 4.920000000000000E+05,      /* J = 62 */
(PID.TID 0000.0001)                 5.000000000000000E+05,      /* J = 63 */
(PID.TID 0000.0001)                 5.080000000000000E+05,      /* J = 64 */
(PID.TID 0000.0001)                 5.160000000000000E+05       /* J = 65 */
(PID.TID 0000.0001)     ;
(PID.TID 0000.0001) rcoord = /* P-point R coordinate (  units of r ) */
(PID.TID 0000.0001)                -5.000000000000000E+00       /* K =  1 */
(PID.TID 0000.0001)     ;
(PID.TID 0000.0001) rF =   /* W-Interf. R coordinate (  units of r ) */
(PID.TID 0000.0001)                 0.000000000000000E+00,      /* K =  1 */
(PID.TID 0000.0001)                -1.000000000000000E+01       /* K =  2 */
(PID.TID 0000.0001)     ;
(PID.TID 0000.0001) deepFacC = /* deep-model grid factor @ cell-Center (-) */
(PID.TID 0000.0001)                 1.000000000000000E+00       /* K =  1 */
(PID.TID 0000.0001)     ;
(PID.TID 0000.0001) deepFacF = /* deep-model grid factor @ W-Interface (-) */
(PID.TID 0000.0001)     2 @  1.000000000000000E+00              /* K =  1:  2 */
(PID.TID 0000.0001)     ;
(PID.TID 0000.0001) rVel2wUnit = /* convert units: rVel -> wSpeed (=1 if z-coord)*/
(PID.TID 0000.0001)     2 @  1.000000000000000E+00              /* K =  1:  2 */
(PID.TID 0000.0001)     ;
(PID.TID 0000.0001) wUnit2rVel = /* convert units: wSpeed -> rVel (=1 if z-coord)*/
(PID.TID 0000.0001)     2 @  1.000000000000000E+00              /* K =  1:  2 */
(PID.TID 0000.0001)     ;
(PID.TID 0000.0001) dBdrRef = /* Vertical grad. of reference buoyancy [(m/s/r)^2] */
(PID.TID 0000.0001)                 0.000000000000000E+00       /* K =  1 */
(PID.TID 0000.0001)     ;
(PID.TID 0000.0001) rotateGrid = /* use rotated grid ( True/False ) */
(PID.TID 0000.0001)                   F
(PID.TID 0000.0001)     ;
(PID.TID 0000.0001) phiEuler = /* Euler angle, rotation about original z-coordinate [rad] */
(PID.TID 0000.0001)                 0.000000000000000E+00
(PID.TID 0000.0001)     ;
(PID.TID 0000.0001) thetaEuler = /* Euler angle, rotation about new x-coordinate [rad] */
(PID.TID 0000.0001)                 0.000000000000000E+00
(PID.TID 0000.0001)     ;
(PID.TID 0000.0001) psiEuler = /* Euler angle, rotation about new z-coordinate [rad] */
(PID.TID 0000.0001)                 0.000000000000000E+00
(PID.TID 0000.0001)     ;
(PID.TID 0000.0001) dxF =  /* dxF(:,1,:,1) ( units: m ) */
(PID.TID 0000.0001)    65 @  8.000000000000000E+03              /* I =  1: 65 */
(PID.TID 0000.0001)     ;
(PID.TID 0000.0001) dxF =  /* dxF(1,:,1,:) ( units: m ) */
(PID.TID 0000.0001)    65 @  8.000000000000000E+03              /* J =  1: 65 */
(PID.TID 0000.0001)     ;
(PID.TID 0000.0001) dyF =  /* dyF(:,1,:,1) ( units: m ) */
(PID.TID 0000.0001)    65 @  8.000000000000000E+03              /* I =  1: 65 */
(PID.TID 0000.0001)     ;
(PID.TID 0000.0001) dyF =  /* dyF(1,:,1,:) ( units: m ) */
(PID.TID 0000.0001)    65 @  8.000000000000000E+03              /* J =  1: 65 */
(PID.TID 0000.0001)     ;
(PID.TID 0000.0001) dxG =  /* dxG(:,1,:,1) ( units: m ) */
(PID.TID 0000.0001)    65 @  8.000000000000000E+03              /* I =  1: 65 */
(PID.TID 0000.0001)     ;
(PID.TID 0000.0001) dxG =  /* dxG(1,:,1,:) ( units: m ) */
(PID.TID 0000.0001)    65 @  8.000000000000000E+03              /* J =  1: 65 */
(PID.TID 0000.0001)     ;
(PID.TID 0000.0001) dyG =  /* dyG(:,1,:,1) ( units: m ) */
(PID.TID 0000.0001)    65 @  8.000000000000000E+03              /* I =  1: 65 */
(PID.TID 0000.0001)     ;
(PID.TID 0000.0001) dyG =  /* dyG(1,:,1,:) ( units: m ) */
(PID.TID 0000.0001)    65 @  8.000000000000000E+03              /* J =  1: 65 */
(PID.TID 0000.0001)     ;
(PID.TID 0000.0001) dxC =  /* dxC(:,1,:,1) ( units: m ) */
(PID.TID 0000.0001)    65 @  8.000000000000000E+03              /* I =  1: 65 */
(PID.TID 0000.0001)     ;
(PID.TID 0000.0001) dxC =  /* dxC(1,:,1,:) ( units: m ) */
(PID.TID 0000.0001)    65 @  8.000000000000000E+03              /* J =  1: 65 */
(PID.TID 0000.0001)     ;
(PID.TID 0000.0001) dyC =  /* dyC(:,1,:,1) ( units: m ) */
(PID.TID 0000.0001)    65 @  8.000000000000000E+03              /* I =  1: 65 */
(PID.TID 0000.0001)     ;
(PID.TID 0000.0001) dyC =  /* dyC(1,:,1,:) ( units: m ) */
(PID.TID 0000.0001)    65 @  8.000000000000000E+03              /* J =  1: 65 */
(PID.TID 0000.0001)     ;
(PID.TID 0000.0001) dxV =  /* dxV(:,1,:,1) ( units: m ) */
(PID.TID 0000.0001)    65 @  8.000000000000000E+03              /* I =  1: 65 */
(PID.TID 0000.0001)     ;
(PID.TID 0000.0001) dxV =  /* dxV(1,:,1,:) ( units: m ) */
(PID.TID 0000.0001)    65 @  8.000000000000000E+03              /* J =  1: 65 */
(PID.TID 0000.0001)     ;
(PID.TID 0000.0001) dyU =  /* dyU(:,1,:,1) ( units: m ) */
(PID.TID 0000.0001)    65 @  8.000000000000000E+03              /* I =  1: 65 */
(PID.TID 0000.0001)     ;
(PID.TID 0000.0001) dyU =  /* dyU(1,:,1,:) ( units: m ) */
(PID.TID 0000.0001)    65 @  8.000000000000000E+03              /* J =  1: 65 */
(PID.TID 0000.0001)     ;
(PID.TID 0000.0001) rA  =  /* rA (:,1,:,1) ( units: m^2 ) */
(PID.TID 0000.0001)    65 @  6.400000000000000E+07              /* I =  1: 65 */
(PID.TID 0000.0001)     ;
(PID.TID 0000.0001) rA  =  /* rA (1,:,1,:) ( units: m^2 ) */
(PID.TID 0000.0001)    65 @  6.400000000000000E+07              /* J =  1: 65 */
(PID.TID 0000.0001)     ;
(PID.TID 0000.0001) rAw =  /* rAw(:,1,:,1) ( units: m^2 ) */
(PID.TID 0000.0001)    65 @  6.400000000000000E+07              /* I =  1: 65 */
(PID.TID 0000.0001)     ;
(PID.TID 0000.0001) rAw =  /* rAw(1,:,1,:) ( units: m^2 ) */
(PID.TID 0000.0001)    65 @  6.400000000000000E+07              /* J =  1: 65 */
(PID.TID 0000.0001)     ;
(PID.TID 0000.0001) rAs =  /* rAs(:,1,:,1) ( units: m^2 ) */
(PID.TID 0000.0001)    65 @  6.400000000000000E+07              /* I =  1: 65 */
(PID.TID 0000.0001)     ;
(PID.TID 0000.0001) rAs =  /* rAs(1,:,1,:) ( units: m^2 ) */
(PID.TID 0000.0001)    65 @  6.400000000000000E+07              /* J =  1: 65 */
(PID.TID 0000.0001)     ;
(PID.TID 0000.0001) globalArea = /* Integrated horizontal Area (m^2) */
(PID.TID 0000.0001)                 2.621440000000000E+11
(PID.TID 0000.0001)     ;
(PID.TID 0000.0001) // =======================================================
(PID.TID 0000.0001) // End of Model config. summary
(PID.TID 0000.0001) // =======================================================
(PID.TID 0000.0001) 
(PID.TID 0000.0001) == Packages configuration : Check & print summary ==
(PID.TID 0000.0001) 
(PID.TID 0000.0001) EXF_CHECK: #define ALLOW_EXF
(PID.TID 0000.0001) SEAICE_CHECK: #define ALLOW_SEAICE
(PID.TID 0000.0001) // =======================================================
(PID.TID 0000.0001) // Check Model config. (CONFIG_CHECK):
(PID.TID 0000.0001) // CONFIG_CHECK : Normal End
(PID.TID 0000.0001) // =======================================================
(PID.TID 0000.0001) 
(PID.TID 0000.0001)  MDS_READ_FIELD: opening global file: uVel_8000.bin
(PID.TID 0000.0001)  MDS_READ_FIELD: opening global file: vVel_8000.bin
(PID.TID 0000.0001) Start initial hydrostatic pressure computation
(PID.TID 0000.0001) Pressure is predetermined for buoyancyRelation OCEANIC
(PID.TID 0000.0001) 
(PID.TID 0000.0001)  write diagnostics summary to file ioUnit:      6
Iter.Nb:         0 ; Time(s):  0.0000000000000E+00
------------------------------------------------------------------------
2D/3D diagnostics: Number of lists:     1
------------------------------------------------------------------------
listId=    1 ; file name: snapshot
 nFlds, nActive,       freq     &     phase        , nLev               
   13  |   13  |         1.000000         0.000000 |   1
 levels:   1
 diag# | name   |   ipt  |  iMate | kLev|   count |   mate.C|           
   163 |SIuice  |      1 |      2 |   1 |       0 |       0 |
   164 |SIvice  |      2 |      1 |   1 |       0 |       0 |
   149 |SIheff  |      3 |      0 |   1 |       0 |
   146 |SIarea  |      4 |      0 |   1 |       0 |
   228 |SIshear |      5 |      0 |   1 |       0 |
   233 |SIcohes |      6 |      0 |   1 |       0 |
   221 |SIsig1  |      7 |      0 |   1 |       0 |
   222 |SIsig2  |      8 |      0 |   1 |       0 |
   231 |SIdamage|      9 |      0 |   1 |       0 |
   165 |SItaux  |     10 |     11 |   1 |       0 |       0 |
   166 |SItauy  |     11 |     10 |   1 |       0 |       0 |
   133 |EXFuwind|     12 |      0 |   1 |       0 |
   134 |EXFvwind|     13 |      0 |   1 |       0 |
------------------------------------------------------------------------
Global & Regional Statistics diagnostics: Number of lists:     0
------------------------------------------------------------------------
(PID.TID 0000.0001)  MDS_READ_FIELD: opening global file: thickness_aniso_8000.bin
(PID.TID 0000.0001)  MDS_READ_FIELD: opening global file: const_1.0_8000.bin
(PID.TID 0000.0001)  MDS_READ_FIELD: opening global file: const_00_8000.bin
(PID.TID 0000.0001) // =======================================================
(PID.TID 0000.0001) // Model current state
(PID.TID 0000.0001) // =======================================================
(PID.TID 0000.0001) 
(PID.TID 0000.0001) // =======================================================
(PID.TID 0000.0001) // Begin MONITOR dynamic field statistics
(PID.TID 0000.0001) // =======================================================
(PID.TID 0000.0001) %MON time_tsnumber                =                     0
(PID.TID 0000.0001) %MON time_secondsf                =   0.0000000000000E+00
(PID.TID 0000.0001) %MON dynstat_eta_max              =   0.0000000000000E+00
(PID.TID 0000.0001) %MON dynstat_eta_min              =   0.0000000000000E+00
(PID.TID 0000.0001) %MON dynstat_eta_mean             =   0.0000000000000E+00
(PID.TID 0000.0001) %MON dynstat_eta_sd               =   0.0000000000000E+00
(PID.TID 0000.0001) %MON dynstat_eta_del2             =   0.0000000000000E+00
(PID.TID 0000.0001) %MON dynstat_uvel_max             =   9.8437500000000E-03
(PID.TID 0000.0001) %MON dynstat_uvel_min             =  -9.8437500000000E-03
(PID.TID 0000.0001) %MON dynstat_uvel_mean            =   0.0000000000000E+00
(PID.TID 0000.0001) %MON dynstat_uvel_sd              =   5.7727978755972E-03
(PID.TID 0000.0001) %MON dynstat_uvel_del2            =   1.0089048364799E-20
(PID.TID 0000.0001) %MON dynstat_vvel_max             =   9.8437500000000E-03
(PID.TID 0000.0001) %MON dynstat_vvel_min             =  -9.8437500000000E-03
(PID.TID 0000.0001) %MON dynstat_vvel_mean            =   0.0000000000000E+00
(PID.TID 0000.0001) %MON dynstat_vvel_sd              =   5.7727978755972E-03
(PID.TID 0000.0001) %MON dynstat_vvel_del2            =   1.0089048364799E-20
(PID.TID 0000.0001) %MON dynstat_wvel_max             =   1.1914062500000E-05
(PID.TID 0000.0001) %MON dynstat_wvel_min             =  -1.1914062500000E-05
(PID.TID 0000.0001) %MON dynstat_wvel_mean            =   3.4694469519536E-25
(PID.TID 0000.0001) %MON dynstat_wvel_sd              =   1.7200872247780E-06
(PID.TID 0000.0001) %MON dynstat_wvel_del2            =   2.8187489626940E-08
(PID.TID 0000.0001) %MON dynstat_theta_max            =  -1.6200000000000E+00
(PID.TID 0000.0001) %MON dynstat_theta_min            =  -1.6200000000000E+00
(PID.TID 0000.0001) %MON dynstat_theta_mean           =  -1.6200000000000E+00
(PID.TID 0000.0001) %MON dynstat_theta_sd             =   0.0000000000000E+00
(PID.TID 0000.0001) %MON dynstat_theta_del2           =   0.0000000000000E+00
(PID.TID 0000.0001) %MON dynstat_salt_max             =   3.0000000000000E+01
(PID.TID 0000.0001) %MON dynstat_salt_min             =   3.0000000000000E+01
(PID.TID 0000.0001) %MON dynstat_salt_mean            =   3.0000000000000E+01
(PID.TID 0000.0001) %MON dynstat_salt_sd              =   0.0000000000000E+00
(PID.TID 0000.0001) %MON dynstat_salt_del2            =   0.0000000000000E+00
(PID.TID 0000.0001) %MON trAdv_CFL_u_max              =   0.0000000000000E+00
(PID.TID 0000.0001) %MON trAdv_CFL_v_max              =   0.0000000000000E+00
(PID.TID 0000.0001) %MON trAdv_CFL_w_max              =   0.0000000000000E+00
(PID.TID 0000.0001) %MON advcfl_uvel_max              =   3.0761718750000E-06
(PID.TID 0000.0001) %MON advcfl_vvel_max              =   3.0761718750000E-06
(PID.TID 0000.0001) %MON advcfl_wvel_max              =   5.9570312500000E-06
(PID.TID 0000.0001) %MON advcfl_W_hf_max              =   0.0000000000000E+00
(PID.TID 0000.0001) %MON pe_b_mean                    =   0.0000000000000E+00
(PID.TID 0000.0001) %MON ke_max                       =   9.0844726562500E-05
(PID.TID 0000.0001) %MON ke_mean                      =   3.2804489135742E-05
(PID.TID 0000.0001) %MON ke_vol                       =   2.6214400000000E+12
(PID.TID 0000.0001) %MON vort_r_min                   =  -7.8125000000000E-08
(PID.TID 0000.0001) %MON vort_r_max                   =   1.2304687500000E-06
(PID.TID 0000.0001) %MON vort_a_mean                  =   1.4856000000000E-04
(PID.TID 0000.0001) %MON vort_a_sd                    =   1.5312918562496E-06
(PID.TID 0000.0001) %MON vort_p_mean                  =   1.5552375000000E-04
(PID.TID 0000.0001) %MON vort_p_sd                    =   5.5921473110222E-05
(PID.TID 0000.0001) %MON surfExpan_theta_mean         =   0.0000000000000E+00
(PID.TID 0000.0001) %MON surfExpan_salt_mean          =   1.3877787807814E-23
(PID.TID 0000.0001) // =======================================================
(PID.TID 0000.0001) // End MONITOR dynamic field statistics
(PID.TID 0000.0001) // =======================================================
(PID.TID 0000.0001) // =======================================================
(PID.TID 0000.0001) // Begin MONITOR SEAICE statistics
(PID.TID 0000.0001) // =======================================================
(PID.TID 0000.0001) %MON seaice_tsnumber              =                     0
(PID.TID 0000.0001) %MON seaice_time_sec              =   0.0000000000000E+00
(PID.TID 0000.0001) %MON seaice_uice_max              =   0.0000000000000E+00
(PID.TID 0000.0001) %MON seaice_uice_min              =   0.0000000000000E+00
(PID.TID 0000.0001) %MON seaice_uice_mean             =   0.0000000000000E+00
(PID.TID 0000.0001) %MON seaice_uice_sd               =   0.0000000000000E+00
(PID.TID 0000.0001) %MON seaice_uice_del2             =   0.0000000000000E+00
(PID.TID 0000.0001) %MON seaice_vice_max              =   0.0000000000000E+00
(PID.TID 0000.0001) %MON seaice_vice_min              =   0.0000000000000E+00
(PID.TID 0000.0001) %MON seaice_vice_mean             =   0.0000000000000E+00
(PID.TID 0000.0001) %MON seaice_vice_sd               =   0.0000000000000E+00
(PID.TID 0000.0001) %MON seaice_vice_del2             =   0.0000000000000E+00
(PID.TID 0000.0001) %MON seaice_area_max              =   1.0000000000000E+00
(PID.TID 0000.0001) %MON seaice_area_min              =   1.0000000000000E+00
(PID.TID 0000.0001) %MON seaice_area_mean             =   1.0000000000000E+00
(PID.TID 0000.0001) %MON seaice_area_sd               =   0.0000000000000E+00
(PID.TID 0000.0001) %MON seaice_area_del2             =   0.0000000000000E+00
(PID.TID 0000.0001) %MON seaice_heff_max              =   3.0999867310186E-01
(PID.TID 0000.0001) %MON seaice_heff_min              =   2.9006056612617E-01
(PID.TID 0000.0001) %MON seaice_heff_mean             =   3.0067126525963E-01
(PID.TID 0000.0001) %MON seaice_heff_sd               =   5.0069223596193E-03
(PID.TID 0000.0001) %MON seaice_heff_del2             =   1.2853747988410E-05
(PID.TID 0000.0001) %MON seaice_hsnow_max             =   0.0000000000000E+00
(PID.TID 0000.0001) %MON seaice_hsnow_min             =   0.0000000000000E+00
(PID.TID 0000.0001) %MON seaice_hsnow_mean            =   0.0000000000000E+00
(PID.TID 0000.0001) %MON seaice_hsnow_sd              =   0.0000000000000E+00
(PID.TID 0000.0001) %MON seaice_hsnow_del2            =   0.0000000000000E+00
(PID.TID 0000.0001) // =======================================================
(PID.TID 0000.0001) // End MONITOR SEAICE statistics
(PID.TID 0000.0001) // =======================================================
(PID.TID 0000.0001)  MDS_READ_FIELD: opening global file: Uwindfield_shifted_8000.bin
(PID.TID 0000.0001)  MDS_READ_FIELD: opening global file: Uwindfield_shifted_8000.bin
(PID.TID 0000.0001)  MDS_READ_FIELD: opening global file: Vwindfield_shifted_8000.bin
(PID.TID 0000.0001)  MDS_READ_FIELD: opening global file: Vwindfield_shifted_8000.bin
(PID.TID 0000.0001) // =======================================================
(PID.TID 0000.0001) // Begin MONITOR EXF statistics
(PID.TID 0000.0001) // =======================================================
(PID.TID 0000.0001) %MON exf_tsnumber                 =                     0
(PID.TID 0000.0001) %MON exf_time_sec                 =   0.0000000000000E+00
(PID.TID 0000.0001) %MON exf_ustress_max              =   1.9231141691350E-01
(PID.TID 0000.0001) %MON exf_ustress_min              =  -1.9231141691350E-01
(PID.TID 0000.0001) %MON exf_ustress_mean             =  -8.4320106452651E-18
(PID.TID 0000.0001) %MON exf_ustress_sd               =   7.8445850617811E-02
(PID.TID 0000.0001) %MON exf_ustress_del2             =   1.8001144613245E-05
(PID.TID 0000.0001) %MON exf_vstress_max              =   1.9231141691350E-01
(PID.TID 0000.0001) %MON exf_vstress_min              =  -1.9231141691350E-01
(PID.TID 0000.0001) %MON exf_vstress_mean             =  -3.0929925287637E-18
(PID.TID 0000.0001) %MON exf_vstress_sd               =   7.8445850617811E-02
(PID.TID 0000.0001) %MON exf_vstress_del2             =   1.8001144613245E-05
(PID.TID 0000.0001) %MON exf_hflux_max                =   1.4838217697133E+02
(PID.TID 0000.0001) %MON exf_hflux_min                =   2.3433846067661E+01
(PID.TID 0000.0001) %MON exf_hflux_mean               =   1.0026753680428E+02
(PID.TID 0000.0001) %MON exf_hflux_sd                 =   3.0838562944901E+01
(PID.TID 0000.0001) %MON exf_hflux_del2               =   1.9427109427666E-02
(PID.TID 0000.0001) %MON exf_sflux_max                =   6.5752836695678E-08
(PID.TID 0000.0001) %MON exf_sflux_min                =   1.0404356137878E-08
(PID.TID 0000.0001) %MON exf_sflux_mean               =   4.4435192388582E-08
(PID.TID 0000.0001) %MON exf_sflux_sd                 =   1.3662828951091E-08
(PID.TID 0000.0001) %MON exf_sflux_del2               =   8.6031990164249E-12
(PID.TID 0000.0001) %MON exf_uwind_max                =   1.1026131745390E+01
(PID.TID 0000.0001) %MON exf_uwind_min                =  -1.1026131745390E+01
(PID.TID 0000.0001) %MON exf_uwind_mean               =   1.2732925824821E-17
(PID.TID 0000.0001) %MON exf_uwind_sd                 =   5.7462157775969E+00
(PID.TID 0000.0001) %MON exf_uwind_del2               =   9.3546309493694E-04
(PID.TID 0000.0001) %MON exf_vwind_max                =   1.1026131745390E+01
(PID.TID 0000.0001) %MON exf_vwind_min                =  -1.1026131745390E+01
(PID.TID 0000.0001) %MON exf_vwind_mean               =  -9.7179508884437E-17
(PID.TID 0000.0001) %MON exf_vwind_sd                 =   5.7462157775969E+00
(PID.TID 0000.0001) %MON exf_vwind_del2               =   9.3546309493693E-04
(PID.TID 0000.0001) %MON exf_wspeed_max               =   1.1036379708204E+01
(PID.TID 0000.0001) %MON exf_wspeed_min               =   1.6037210808494E+00
(PID.TID 0000.0001) %MON exf_wspeed_mean              =   7.8300458826945E+00
(PID.TID 0000.0001) %MON exf_wspeed_sd                =   2.1744822372939E+00
(PID.TID 0000.0001) %MON exf_wspeed_del2              =   1.6416115697052E-03
(PID.TID 0000.0001) %MON exf_evap_max                 =   6.5752836695678E-08
(PID.TID 0000.0001) %MON exf_evap_min                 =   1.0404356137878E-08
(PID.TID 0000.0001) %MON exf_evap_mean                =   4.4435192388582E-08
(PID.TID 0000.0001) %MON exf_evap_sd                  =   1.3662828951091E-08
(PID.TID 0000.0001) %MON exf_evap_del2                =   8.6031990164249E-12
(PID.TID 0000.0001) // =======================================================
(PID.TID 0000.0001) // End MONITOR EXF statistics
(PID.TID 0000.0001) // =======================================================
(PID.TID 0000.0001)  S/R SEAICE_KRYLOV: Picard iterate / total, KRYLOVgamma_lin, initial norm =       1      1 0.10000E+00 0.11420E+00
(PID.TID 0000.0001)  S/R SEAICE_KRYLOV: Picard iterate / total =      1 /      1, Nb. of FGMRES iterations =      1
(PID.TID 0000.0001)  S/R SEAICE_KRYLOV: Picard iterate / total, KRYLOVgamma_lin, initial norm =       2      2 0.50000E-01 0.19542E-03
(PID.TID 0000.0001)  S/R SEAICE_KRYLOV: Picard iterate / total =      2 /      2, Nb. of FGMRES iterations =      1
(PID.TID 0000.0001)  S/R SEAICE_KRYLOV: Picard iterate / total, KRYLOVgamma_lin, initial norm =       3      3 0.50000E-01 0.96561E-04
(PID.TID 0000.0001)  S/R SEAICE_KRYLOV: Picard iterate / total =      3 /      3, Nb. of FGMRES iterations =      1
(PID.TID 0000.0001)  S/R SEAICE_KRYLOV: Picard iterate / total, KRYLOVgamma_lin, initial norm =       4      4 0.33333E-01 0.48281E-04
(PID.TID 0000.0001)  S/R SEAICE_KRYLOV: Picard iterate / total =      4 /      4, Nb. of FGMRES iterations =      1
(PID.TID 0000.0001)  S/R SEAICE_KRYLOV: Picard iterate / total, KRYLOVgamma_lin, initial norm =       5      5 0.33333E-01 0.24141E-04
(PID.TID 0000.0001)  S/R SEAICE_KRYLOV: Picard iterate / total =      5 /      5, Nb. of FGMRES iterations =      1
(PID.TID 0000.0001)  S/R SEAICE_KRYLOV: Picard iterate / total, KRYLOVgamma_lin, initial norm =       6      6 0.33333E-01 0.12070E-04
(PID.TID 0000.0001)  S/R SEAICE_KRYLOV: Picard iterate / total =      6 /      6, Nb. of FGMRES iterations =      1
(PID.TID 0000.0001)  S/R SEAICE_KRYLOV: Picard iterate / total, KRYLOVgamma_lin, initial norm =       7      7 0.33333E-01 0.60352E-05
(PID.TID 0000.0001)  S/R SEAICE_KRYLOV: Picard iterate / total =      7 /      7, Nb. of FGMRES iterations =      1
(PID.TID 0000.0001)  S/R SEAICE_KRYLOV: Picard iterate / total, KRYLOVgamma_lin, initial norm =       8      8 0.25000E-01 0.30176E-05
(PID.TID 0000.0001)  S/R SEAICE_KRYLOV: Picard iterate / total =      8 /      8, Nb. of FGMRES iterations =      1
(PID.TID 0000.0001)  S/R SEAICE_KRYLOV: Picard iterate / total, KRYLOVgamma_lin, initial norm =       9      9 0.20000E-01 0.15088E-05
(PID.TID 0000.0001)  S/R SEAICE_KRYLOV: Picard iterate / total =      9 /      9, Nb. of FGMRES iterations =      1
(PID.TID 0000.0001)  S/R SEAICE_KRYLOV: Picard iterate / total, KRYLOVgamma_lin, initial norm =      10     10 0.12500E-01 0.75439E-06
(PID.TID 0000.0001)  S/R SEAICE_KRYLOV: Picard iterate / total =     10 /     10, Nb. of FGMRES iterations =      1
(PID.TID 0000.0001)  S/R SEAICE_KRYLOV: Picard iterate / total, KRYLOVgamma_lin, initial norm =      11     11 0.12500E-01 0.37720E-06
(PID.TID 0000.0001)  S/R SEAICE_KRYLOV: Picard iterate / total =     11 /     11, Nb. of FGMRES iterations =      1
(PID.TID 0000.0001)  S/R SEAICE_KRYLOV: Picard iterate / total, KRYLOVgamma_lin, initial norm =      12     12 0.12500E-01 0.18860E-06
(PID.TID 0000.0001)  S/R SEAICE_KRYLOV: Picard iterate / total =     12 /     12, Nb. of FGMRES iterations =      1
(PID.TID 0000.0001)  S/R SEAICE_KRYLOV: Picard iterate / total, KRYLOVgamma_lin, initial norm =      13     13 0.12500E-01 0.94299E-07
(PID.TID 0000.0001)  S/R SEAICE_KRYLOV: Picard iterate / total =     13 /     13, Nb. of FGMRES iterations =      1
(PID.TID 0000.0001)  S/R SEAICE_KRYLOV: Picard iterate / total, KRYLOVgamma_lin, initial norm =      14     14 0.12500E-01 0.47150E-07
(PID.TID 0000.0001)  S/R SEAICE_KRYLOV: Picard iterate / total =     14 /     14, Nb. of FGMRES iterations =      1
(PID.TID 0000.0001)  S/R SEAICE_KRYLOV: Picard iterate / total, KRYLOVgamma_lin, initial norm =      15     15 0.12500E-01 0.23575E-07
(PID.TID 0000.0001)  S/R SEAICE_KRYLOV: Picard iterate / total =     15 /     15, Nb. of FGMRES iterations =      1
(PID.TID 0000.0001)  S/R SEAICE_KRYLOV: Picard iterate / total, KRYLOVgamma_lin, initial norm =      16     16 0.12500E-01 0.11787E-07
(PID.TID 0000.0001)  S/R SEAICE_KRYLOV: Picard iterate / total =     16 /     16, Nb. of FGMRES iterations =      1
(PID.TID 0000.0001)  S/R SEAICE_KRYLOV: Picard iterate / total, KRYLOVgamma_lin, initial norm =      17     17 0.12500E-01 0.58937E-08
(PID.TID 0000.0001)  S/R SEAICE_KRYLOV: Picard iterate / total =     17 /     17, Nb. of FGMRES iterations =      1
(PID.TID 0000.0001)  S/R SEAICE_KRYLOV: Picard iterate / total, KRYLOVgamma_lin, initial norm =      18     18 0.12500E-01 0.29469E-08
(PID.TID 0000.0001)  S/R SEAICE_KRYLOV: Picard iterate / total =     18 /     18, Nb. of FGMRES iterations =      1
(PID.TID 0000.0001)  S/R SEAICE_KRYLOV: Picard iterate / total, KRYLOVgamma_lin, initial norm =      19     19 0.12500E-01 0.14734E-08
(PID.TID 0000.0001)  S/R SEAICE_KRYLOV: Picard iterate / total =     19 /     19, Nb. of FGMRES iterations =      1
(PID.TID 0000.0001)  S/R SEAICE_KRYLOV: Picard iterate / total, KRYLOVgamma_lin, initial norm =      20     20 0.12500E-01 0.73671E-09
(PID.TID 0000.0001)  S/R SEAICE_KRYLOV: Picard iterate / total =     20 /     20, Nb. of FGMRES iterations =      1
(PID.TID 0000.0001)  S/R SEAICE_KRYLOV: Picard iterate / total, KRYLOVgamma_lin, initial norm =      21     21 0.12500E-01 0.36836E-09
(PID.TID 0000.0001)  S/R SEAICE_KRYLOV: Picard iterate / total =     21 /     21, Nb. of FGMRES iterations =      1
(PID.TID 0000.0001)  S/R SEAICE_KRYLOV: Picard iterate / total, KRYLOVgamma_lin, initial norm =      22     22 0.12500E-01 0.18418E-09
(PID.TID 0000.0001)  S/R SEAICE_KRYLOV: Picard iterate / total =     22 /     22, Nb. of FGMRES iterations =      1
(PID.TID 0000.0001)  S/R SEAICE_KRYLOV: Picard iterate / total, KRYLOVgamma_lin, initial norm =      23     23 0.12500E-01 0.92089E-10
(PID.TID 0000.0001)  S/R SEAICE_KRYLOV: Picard iterate / total =     23 /     23, Nb. of FGMRES iterations =      1
(PID.TID 0000.0001)  S/R SEAICE_KRYLOV: Picard iterate / total, KRYLOVgamma_lin, initial norm =      24     24 0.12500E-01 0.46045E-10
(PID.TID 0000.0001)  S/R SEAICE_KRYLOV: Picard iterate / total =     24 /     24, Nb. of FGMRES iterations =      1
(PID.TID 0000.0001)  S/R SEAICE_KRYLOV: Picard iterate / total, KRYLOVgamma_lin, initial norm =      25     25 0.12500E-01 0.23022E-10
(PID.TID 0000.0001)  S/R SEAICE_KRYLOV: Picard iterate / total =     25 /     25, Nb. of FGMRES iterations =      1
(PID.TID 0000.0001)  S/R SEAICE_KRYLOV: Picard iterate / total, KRYLOVgamma_lin, initial norm =      26     26 0.12500E-01 0.11511E-10
(PID.TID 0000.0001)  S/R SEAICE_KRYLOV: Picard iterate / total =     26 /     26, Nb. of FGMRES iterations =      1
(PID.TID 0000.0001)  S/R SEAICE_KRYLOV: Picard iterate / total, KRYLOVgamma_lin, initial norm =      27     27 0.12500E-01 0.57556E-11
(PID.TID 0000.0001)  S/R SEAICE_KRYLOV: Picard iterate / total =     27 /     27, Nb. of FGMRES iterations =      1
(PID.TID 0000.0001)  S/R SEAICE_KRYLOV: Picard iterate / total, KRYLOVgamma_lin, initial norm =      28     28 0.12500E-01 0.28778E-11
(PID.TID 0000.0001)  S/R SEAICE_KRYLOV: Picard iterate / total =     28 /     28, Nb. of FGMRES iterations =      1
(PID.TID 0000.0001)  S/R SEAICE_KRYLOV: Picard iterate / total, KRYLOVgamma_lin, initial norm =      29     29 0.12500E-01 0.14389E-11
(PID.TID 0000.0001)  S/R SEAICE_KRYLOV: Picard iterate / total =     29 /     29, Nb. of FGMRES iterations =      1
(PID.TID 0000.0001)  S/R SEAICE_KRYLOV: Picard iterate / total, KRYLOVgamma_lin, initial norm =      30     30 0.12500E-01 0.71945E-12
(PID.TID 0000.0001)  S/R SEAICE_KRYLOV: Picard iterate / total =     30 /     30, Nb. of FGMRES iterations =      1
(PID.TID 0000.0001)  S/R SEAICE_KRYLOV: Picard iterate / total, KRYLOVgamma_lin, initial norm =      31     31 0.12500E-01 0.35972E-12
(PID.TID 0000.0001)  S/R SEAICE_KRYLOV: Picard iterate / total =     31 /     31, Nb. of FGMRES iterations =      1
(PID.TID 0000.0001)  S/R SEAICE_KRYLOV: Picard iterate / total, KRYLOVgamma_lin, initial norm =      32     32 0.12500E-01 0.17986E-12
(PID.TID 0000.0001)  S/R SEAICE_KRYLOV: Picard iterate / total =     32 /     32, Nb. of FGMRES iterations =      1
(PID.TID 0000.0001)  S/R SEAICE_KRYLOV: Picard iterate / total, KRYLOVgamma_lin, final   norm =      33     33 0.12500E-01 0.89931E-13
(PID.TID 0000.0001)  // =======================================================
(PID.TID 0000.0001)  // Begin KRYLOV statistics
(PID.TID 0000.0001)  // =======================================================
(PID.TID 0000.0001)  %KRYLOV_MON: time step              =          1
(PID.TID 0000.0001)  %KRYLOV_MON: Nb. of time steps      =          1
(PID.TID 0000.0001)  %KRYLOV_MON: Nb. of Picard steps    =         33
(PID.TID 0000.0001)  %KRYLOV_MON: Nb. of Krylov steps    =         32
(PID.TID 0000.0001)  %KRYLOV_MON: Nb. of Picard failures =          0
(PID.TID 0000.0001)  %KRYLOV_MON: Nb. of Krylov failures =          0
(PID.TID 0000.0001)  // =======================================================
(PID.TID 0000.0001)  // End KRYLOV statistics
(PID.TID 0000.0001)  // =======================================================
(PID.TID 0000.0001)  S/R SEAICE_KRYLOV: Total number FGMRES iterations =     32 in timestep          1
(PID.TID 0000.0001) // =======================================================
(PID.TID 0000.0001) // Begin MONITOR dynamic field statistics
(PID.TID 0000.0001) // =======================================================
(PID.TID 0000.0001) %MON time_tsnumber                =                     1
(PID.TID 0000.0001) %MON time_secondsf                =   2.5000000000000E+00
(PID.TID 0000.0001) %MON dynstat_eta_max              =   0.0000000000000E+00
(PID.TID 0000.0001) %MON dynstat_eta_min              =   0.0000000000000E+00
(PID.TID 0000.0001) %MON dynstat_eta_mean             =   0.0000000000000E+00
(PID.TID 0000.0001) %MON dynstat_eta_sd               =   0.0000000000000E+00
(PID.TID 0000.0001) %MON dynstat_eta_del2             =   0.0000000000000E+00
(PID.TID 0000.0001) %MON dynstat_uvel_max             =   9.8437500000000E-03
(PID.TID 0000.0001) %MON dynstat_uvel_min             =  -9.8437500000000E-03
(PID.TID 0000.0001) %MON dynstat_uvel_mean            =   0.0000000000000E+00
(PID.TID 0000.0001) %MON dynstat_uvel_sd              =   5.7727978755972E-03
(PID.TID 0000.0001) %MON dynstat_uvel_del2            =   1.0089048364799E-20
(PID.TID 0000.0001) %MON dynstat_vvel_max             =   9.8437500000000E-03
(PID.TID 0000.0001) %MON dynstat_vvel_min             =  -9.8437500000000E-03
(PID.TID 0000.0001) %MON dynstat_vvel_mean            =   0.0000000000000E+00
(PID.TID 0000.0001) %MON dynstat_vvel_sd              =   5.7727978755972E-03
(PID.TID 0000.0001) %MON dynstat_vvel_del2            =   1.0089048364799E-20
(PID.TID 0000.0001) %MON dynstat_wvel_max             =   1.1914062500000E-05
(PID.TID 0000.0001) %MON dynstat_wvel_min             =  -1.1914062500000E-05
(PID.TID 0000.0001) %MON dynstat_wvel_mean            =   3.4694469519536E-25
(PID.TID 0000.0001) %MON dynstat_wvel_sd              =   1.7200872247780E-06
(PID.TID 0000.0001) %MON dynstat_wvel_del2            =   2.8187489626940E-08
(PID.TID 0000.0001) %MON dynstat_theta_max            =  -1.6200000000000E+00
(PID.TID 0000.0001) %MON dynstat_theta_min            =  -1.6200000000000E+00
(PID.TID 0000.0001) %MON dynstat_theta_mean           =  -1.6200000000000E+00
(PID.TID 0000.0001) %MON dynstat_theta_sd             =   0.0000000000000E+00
(PID.TID 0000.0001) %MON dynstat_theta_del2           =   0.0000000000000E+00
(PID.TID 0000.0001) %MON dynstat_salt_max             =   3.0000000000000E+01
(PID.TID 0000.0001) %MON dynstat_salt_min             =   3.0000000000000E+01
(PID.TID 0000.0001) %MON dynstat_salt_mean            =   3.0000000000000E+01
(PID.TID 0000.0001) %MON dynstat_salt_sd              =   0.0000000000000E+00
(PID.TID 0000.0001) %MON dynstat_salt_del2            =   0.0000000000000E+00
(PID.TID 0000.0001) %MON trAdv_CFL_u_max              =   3.0761718750000E-06
(PID.TID 0000.0001) %MON trAdv_CFL_v_max              =   3.0761718750000E-06
(PID.TID 0000.0001) %MON trAdv_CFL_w_max              =   2.9785156250000E-06
(PID.TID 0000.0001) %MON advcfl_uvel_max              =   3.0761718750000E-06
(PID.TID 0000.0001) %MON advcfl_vvel_max              =   3.0761718750000E-06
(PID.TID 0000.0001) %MON advcfl_wvel_max              =   5.9570312500000E-06
(PID.TID 0000.0001) %MON advcfl_W_hf_max              =   0.0000000000000E+00
(PID.TID 0000.0001) %MON pe_b_mean                    =   0.0000000000000E+00
(PID.TID 0000.0001) %MON ke_max                       =   9.0844726562500E-05
(PID.TID 0000.0001) %MON ke_mean                      =   3.2804489135742E-05
(PID.TID 0000.0001) %MON ke_vol                       =   2.6214400000000E+12
(PID.TID 0000.0001) %MON vort_r_min                   =  -7.8125000000000E-08
(PID.TID 0000.0001) %MON vort_r_max                   =   1.2304687500000E-06
(PID.TID 0000.0001) %MON vort_a_mean                  =   1.4856000000000E-04
(PID.TID 0000.0001) %MON vort_a_sd                    =   1.5312918562496E-06
(PID.TID 0000.0001) %MON vort_p_mean                  =   1.5552375000000E-04
(PID.TID 0000.0001) %MON vort_p_sd                    =   5.5921473110222E-05
(PID.TID 0000.0001) %MON surfExpan_theta_mean         =   0.0000000000000E+00
(PID.TID 0000.0001) %MON surfExpan_salt_mean          =   1.3877787807814E-23
(PID.TID 0000.0001) // =======================================================
(PID.TID 0000.0001) // End MONITOR dynamic field statistics
(PID.TID 0000.0001) // =======================================================
(PID.TID 0000.0001) // =======================================================
(PID.TID 0000.0001) // Begin MONITOR SEAICE statistics
(PID.TID 0000.0001) // =======================================================
(PID.TID 0000.0001) %MON seaice_tsnumber              =                     1
(PID.TID 0000.0001) %MON seaice_time_sec              =   2.5000000000000E+00
(PID.TID 0000.0001) %MON seaice_uice_max              =   1.7542640102750E-03
(PID.TID 0000.0001) %MON seaice_uice_min              =  -1.7969956199743E-03
(PID.TID 0000.0001) %MON seaice_uice_mean             =  -4.6763699212398E-08
(PID.TID 0000.0001) %MON seaice_uice_sd               =   7.5487939948445E-04
(PID.TID 0000.0001) %MON seaice_uice_del2             =   1.6922143286586E-07
(PID.TID 0000.0001) %MON seaice_vice_max              =   1.7111243523858E-03
(PID.TID 0000.0001) %MON seaice_vice_min              =  -1.7344359772174E-03
(PID.TID 0000.0001) %MON seaice_vice_mean             =   1.9512441866225E-07
(PID.TID 0000.0001) %MON seaice_vice_sd               =   7.5114009728235E-04
(PID.TID 0000.0001) %MON seaice_vice_del2             =   1.6786619984667E-07
(PID.TID 0000.0001) %MON seaice_area_max              =   1.0000000000000E+00
(PID.TID 0000.0001) %MON seaice_area_min              =   9.9999992127119E-01
(PID.TID 0000.0001) %MON seaice_area_mean             =   9.9999999570750E-01
(PID.TID 0000.0001) %MON seaice_area_sd               =   1.0789794550568E-08
(PID.TID 0000.0001) %MON seaice_area_del2             =   1.5121813730446E-10
(PID.TID 0000.0001) %MON seaice_heff_max              =   3.0999867197300E-01
(PID.TID 0000.0001) %MON seaice_heff_min              =   2.9006056493844E-01
(PID.TID 0000.0001) %MON seaice_heff_mean             =   3.0067126525963E-01
(PID.TID 0000.0001) %MON seaice_heff_sd               =   5.0069224096608E-03
(PID.TID 0000.0001) %MON seaice_heff_del2             =   1.2853747819574E-05
(PID.TID 0000.0001) %MON seaice_hsnow_max             =   0.0000000000000E+00
(PID.TID 0000.0001) %MON seaice_hsnow_min             =   0.0000000000000E+00
(PID.TID 0000.0001) %MON seaice_hsnow_mean            =   0.0000000000000E+00
(PID.TID 0000.0001) %MON seaice_hsnow_sd              =   0.0000000000000E+00
(PID.TID 0000.0001) %MON seaice_hsnow_del2            =   0.0000000000000E+00
(PID.TID 0000.0001) // =======================================================
(PID.TID 0000.0001) // End MONITOR SEAICE statistics
(PID.TID 0000.0001) // =======================================================
 Computing Diagnostic #    163  SIuice       Counter:       1   Parms: UU      M1      
           Vector  Mate for  SIuice       Diagnostic #    164  SIvice   exists 
 Computing Diagnostic #    164  SIvice       Counter:       1   Parms: VV      M1      
           Vector  Mate for  SIvice       Diagnostic #    163  SIuice   exists 
 Computing Diagnostic #    149  SIheff       Counter:       1   Parms: SM      M1      
 Computing Diagnostic #    146  SIarea       Counter:       1   Parms: SM      M1      
 Computing Diagnostic #    228  SIshear      Counter:       1   Parms: SM      M1      
 Computing Diagnostic #    233  SIcohes      Counter:       1   Parms: SM      M1      
 Computing Diagnostic #    221  SIsig1       Counter:       1   Parms: SM      M1      
 Computing Diagnostic #    222  SIsig2       Counter:       1   Parms: SM      M1      
 Computing Diagnostic #    231  SIdamage     Counter:       1   Parms: SM      M1      
 Computing Diagnostic #    165  SItaux       Counter:       1   Parms: UU      U1      
           Vector  Mate for  SItaux       Diagnostic #    166  SItauy   exists 
 Computing Diagnostic #    166  SItauy       Counter:       1   Parms: VV      U1      
           Vector  Mate for  SItauy       Diagnostic #    165  SItaux   exists 
 Computing Diagnostic #    133  EXFuwind     Counter:       1   Parms: UM      U1      
 Computing Diagnostic #    134  EXFvwind     Counter:       1   Parms: VM      U1      
(PID.TID 0000.0001)  S/R SEAICE_KRYLOV: Picard iterate / total, KRYLOVgamma_lin, initial norm =       1    101 0.10000E+00 0.11381E+00
(PID.TID 0000.0001)  S/R SEAICE_KRYLOV: Picard iterate / total =      1 /    101, Nb. of FGMRES iterations =      1
(PID.TID 0000.0001)  S/R SEAICE_KRYLOV: Picard iterate / total, KRYLOVgamma_lin, initial norm =       2    102 0.50000E-01 0.16949E-03
(PID.TID 0000.0001)  S/R SEAICE_KRYLOV: Picard iterate / total =      2 /    102, Nb. of FGMRES iterations =      1
(PID.TID 0000.0001)  S/R SEAICE_KRYLOV: Picard iterate / total, KRYLOVgamma_lin, initial norm =       3    103 0.50000E-01 0.83383E-04
(PID.TID 0000.0001)  S/R SEAICE_KRYLOV: Picard iterate / total =      3 /    103, Nb. of FGMRES iterations =      1
(PID.TID 0000.0001)  S/R SEAICE_KRYLOV: Picard iterate / total, KRYLOVgamma_lin, initial norm =       4    104 0.33333E-01 0.41693E-04
(PID.TID 0000.0001)  S/R SEAICE_KRYLOV: Picard iterate / total =      4 /    104, Nb. of FGMRES iterations =      1
(PID.TID 0000.0001)  S/R SEAICE_KRYLOV: Picard iterate / total, KRYLOVgamma_lin, initial norm =       5    105 0.33333E-01 0.20846E-04
(PID.TID 0000.0001)  S/R SEAICE_KRYLOV: Picard iterate / total =      5 /    105, Nb. of FGMRES iterations =      1
(PID.TID 0000.0001)  S/R SEAICE_KRYLOV: Picard iterate / total, KRYLOVgamma_lin, initial norm =       6    106 0.33333E-01 0.10423E-04
(PID.TID 0000.0001)  S/R SEAICE_KRYLOV: Picard iterate / total =      6 /    106, Nb. of FGMRES iterations =      1
(PID.TID 0000.0001)  S/R SEAICE_KRYLOV: Picard iterate / total, KRYLOVgamma_lin, initial norm =       7    107 0.33333E-01 0.52116E-05
(PID.TID 0000.0001)  S/R SEAICE_KRYLOV: Picard iterate / total =      7 /    107, Nb. of FGMRES iterations =      1
(PID.TID 0000.0001)  S/R SEAICE_KRYLOV: Picard iterate / total, KRYLOVgamma_lin, initial norm =       8    108 0.25000E-01 0.26058E-05
(PID.TID 0000.0001)  S/R SEAICE_KRYLOV: Picard iterate / total =      8 /    108, Nb. of FGMRES iterations =      1
(PID.TID 0000.0001)  S/R SEAICE_KRYLOV: Picard iterate / total, KRYLOVgamma_lin, initial norm =       9    109 0.20000E-01 0.13029E-05
(PID.TID 0000.0001)  S/R SEAICE_KRYLOV: Picard iterate / total =      9 /    109, Nb. of FGMRES iterations =      1
(PID.TID 0000.0001)  S/R SEAICE_KRYLOV: Picard iterate / total, KRYLOVgamma_lin, initial norm =      10    110 0.12500E-01 0.65145E-06
(PID.TID 0000.0001)  S/R SEAICE_KRYLOV: Picard iterate / total =     10 /    110, Nb. of FGMRES iterations =      1
(PID.TID 0000.0001)  S/R SEAICE_KRYLOV: Picard iterate / total, KRYLOVgamma_lin, initial norm =      11    111 0.12500E-01 0.32572E-06
(PID.TID 0000.0001)  S/R SEAICE_KRYLOV: Picard iterate / total =     11 /    111, Nb. of FGMRES iterations =      1
(PID.TID 0000.0001)  S/R SEAICE_KRYLOV: Picard iterate / total, KRYLOVgamma_lin, initial norm =      12    112 0.12500E-01 0.16286E-06
(PID.TID 0000.0001)  S/R SEAICE_KRYLOV: Picard iterate / total =     12 /    112, Nb. of FGMRES iterations =      1
(PID.TID 0000.0001)  S/R SEAICE_KRYLOV: Picard iterate / total, KRYLOVgamma_lin, initial norm =      13    113 0.12500E-01 0.81431E-07
(PID.TID 0000.0001)  S/R SEAICE_KRYLOV: Picard iterate / total =     13 /    113, Nb. of FGMRES iterations =      1
(PID.TID 0000.0001)  S/R SEAICE_KRYLOV: Picard iterate / total, KRYLOVgamma_lin, initial norm =      14    114 0.12500E-01 0.40715E-07
(PID.TID 0000.0001)  S/R SEAICE_KRYLOV: Picard iterate / total =     14 /    114, Nb. of FGMRES iterations =      1
(PID.TID 0000.0001)  S/R SEAICE_KRYLOV: Picard iterate / total, KRYLOVgamma_lin, initial norm =      15    115 0.12500E-01 0.20358E-07
(PID.TID 0000.0001)  S/R SEAICE_KRYLOV: Picard iterate / total =     15 /    115, Nb. of FGMRES iterations =      1
(PID.TID 0000.0001)  S/R SEAICE_KRYLOV: Picard iterate / total, KRYLOVgamma_lin, initial norm =      16    116 0.12500E-01 0.10179E-07
(PID.TID 0000.0001)  S/R SEAICE_KRYLOV: Picard iterate / total =     16 /    116, Nb. of FGMRES iterations =      1
(PID.TID 0000.0001)  S/R SEAICE_KRYLOV: Picard iterate / total, KRYLOVgamma_lin, initial norm =      17    117 0.12500E-01 0.50894E-08
(PID.TID 0000.0001)  S/R SEAICE_KRYLOV: Picard iterate / total =     17 /    117, Nb. of FGMRES iterations =      1
(PID.TID 0000.0001)  S/R SEAICE_KRYLOV: Picard iterate / total, KRYLOVgamma_lin, initial norm =      18    118 0.12500E-01 0.25447E-08
(PID.TID 0000.0001)  S/R SEAICE_KRYLOV: Picard iterate / total =     18 /    118, Nb. of FGMRES iterations =      1
(PID.TID 0000.0001)  S/R SEAICE_KRYLOV: Picard iterate / total, KRYLOVgamma_lin, initial norm =      19    119 0.12500E-01 0.12724E-08
(PID.TID 0000.0001)  S/R SEAICE_KRYLOV: Picard iterate / total =     19 /    119, Nb. of FGMRES iterations =      1
(PID.TID 0000.0001)  S/R SEAICE_KRYLOV: Picard iterate / total, KRYLOVgamma_lin, initial norm =      20    120 0.12500E-01 0.63618E-09
(PID.TID 0000.0001)  S/R SEAICE_KRYLOV: Picard iterate / total =     20 /    120, Nb. of FGMRES iterations =      1
(PID.TID 0000.0001)  S/R SEAICE_KRYLOV: Picard iterate / total, KRYLOVgamma_lin, initial norm =      21    121 0.12500E-01 0.31809E-09
(PID.TID 0000.0001)  S/R SEAICE_KRYLOV: Picard iterate / total =     21 /    121, Nb. of FGMRES iterations =      1
(PID.TID 0000.0001)  S/R SEAICE_KRYLOV: Picard iterate / total, KRYLOVgamma_lin, initial norm =      22    122 0.12500E-01 0.15904E-09
(PID.TID 0000.0001)  S/R SEAICE_KRYLOV: Picard iterate / total =     22 /    122, Nb. of FGMRES iterations =      1
(PID.TID 0000.0001)  S/R SEAICE_KRYLOV: Picard iterate / total, KRYLOVgamma_lin, initial norm =      23    123 0.12500E-01 0.79522E-10
(PID.TID 0000.0001)  S/R SEAICE_KRYLOV: Picard iterate / total =     23 /    123, Nb. of FGMRES iterations =      1
(PID.TID 0000.0001)  S/R SEAICE_KRYLOV: Picard iterate / total, KRYLOVgamma_lin, initial norm =      24    124 0.12500E-01 0.39761E-10
(PID.TID 0000.0001)  S/R SEAICE_KRYLOV: Picard iterate / total =     24 /    124, Nb. of FGMRES iterations =      1
(PID.TID 0000.0001)  S/R SEAICE_KRYLOV: Picard iterate / total, KRYLOVgamma_lin, initial norm =      25    125 0.12500E-01 0.19881E-10
(PID.TID 0000.0001)  S/R SEAICE_KRYLOV: Picard iterate / total =     25 /    125, Nb. of FGMRES iterations =      1
(PID.TID 0000.0001)  S/R SEAICE_KRYLOV: Picard iterate / total, KRYLOVgamma_lin, initial norm =      26    126 0.12500E-01 0.99403E-11
(PID.TID 0000.0001)  S/R SEAICE_KRYLOV: Picard iterate / total =     26 /    126, Nb. of FGMRES iterations =      1
(PID.TID 0000.0001)  S/R SEAICE_KRYLOV: Picard iterate / total, KRYLOVgamma_lin, initial norm =      27    127 0.12500E-01 0.49701E-11
(PID.TID 0000.0001)  S/R SEAICE_KRYLOV: Picard iterate / total =     27 /    127, Nb. of FGMRES iterations =      1
(PID.TID 0000.0001)  S/R SEAICE_KRYLOV: Picard iterate / total, KRYLOVgamma_lin, initial norm =      28    128 0.12500E-01 0.24851E-11
(PID.TID 0000.0001)  S/R SEAICE_KRYLOV: Picard iterate / total =     28 /    128, Nb. of FGMRES iterations =      1
(PID.TID 0000.0001)  S/R SEAICE_KRYLOV: Picard iterate / total, KRYLOVgamma_lin, initial norm =      29    129 0.12500E-01 0.12425E-11
(PID.TID 0000.0001)  S/R SEAICE_KRYLOV: Picard iterate / total =     29 /    129, Nb. of FGMRES iterations =      1
(PID.TID 0000.0001)  S/R SEAICE_KRYLOV: Picard iterate / total, KRYLOVgamma_lin, initial norm =      30    130 0.12500E-01 0.62127E-12
(PID.TID 0000.0001)  S/R SEAICE_KRYLOV: Picard iterate / total =     30 /    130, Nb. of FGMRES iterations =      1
(PID.TID 0000.0001)  S/R SEAICE_KRYLOV: Picard iterate / total, KRYLOVgamma_lin, initial norm =      31    131 0.12500E-01 0.31063E-12
(PID.TID 0000.0001)  S/R SEAICE_KRYLOV: Picard iterate / total =     31 /    131, Nb. of FGMRES iterations =      1
(PID.TID 0000.0001)  S/R SEAICE_KRYLOV: Picard iterate / total, KRYLOVgamma_lin, initial norm =      32    132 0.12500E-01 0.15532E-12
(PID.TID 0000.0001)  S/R SEAICE_KRYLOV: Picard iterate / total =     32 /    132, Nb. of FGMRES iterations =      1
(PID.TID 0000.0001)  S/R SEAICE_KRYLOV: Picard iterate / total, KRYLOVgamma_lin, final   norm =      33    133 0.12500E-01 0.77659E-13
(PID.TID 0000.0001)  // =======================================================
(PID.TID 0000.0001)  // Begin KRYLOV statistics
(PID.TID 0000.0001)  // =======================================================
(PID.TID 0000.0001)  %KRYLOV_MON: time step              =          2
(PID.TID 0000.0001)  %KRYLOV_MON: Nb. of time steps      =          1
(PID.TID 0000.0001)  %KRYLOV_MON: Nb. of Picard steps    =         33
(PID.TID 0000.0001)  %KRYLOV_MON: Nb. of Krylov steps    =         32
(PID.TID 0000.0001)  %KRYLOV_MON: Nb. of Picard failures =          0
(PID.TID 0000.0001)  %KRYLOV_MON: Nb. of Krylov failures =          0
(PID.TID 0000.0001)  // =======================================================
(PID.TID 0000.0001)  // End KRYLOV statistics
(PID.TID 0000.0001)  // =======================================================
(PID.TID 0000.0001)  S/R SEAICE_KRYLOV: Total number FGMRES iterations =     32 in timestep          2
(PID.TID 0000.0001) // =======================================================
(PID.TID 0000.0001) // Begin MONITOR dynamic field statistics
(PID.TID 0000.0001) // =======================================================
(PID.TID 0000.0001) %MON time_tsnumber                =                     2
(PID.TID 0000.0001) %MON time_secondsf                =   5.0000000000000E+00
(PID.TID 0000.0001) %MON dynstat_eta_max              =   0.0000000000000E+00
(PID.TID 0000.0001) %MON dynstat_eta_min              =   0.0000000000000E+00
(PID.TID 0000.0001) %MON dynstat_eta_mean             =   0.0000000000000E+00
(PID.TID 0000.0001) %MON dynstat_eta_sd               =   0.0000000000000E+00
(PID.TID 0000.0001) %MON dynstat_eta_del2             =   0.0000000000000E+00
(PID.TID 0000.0001) %MON dynstat_uvel_max             =   9.8437500000000E-03
(PID.TID 0000.0001) %MON dynstat_uvel_min             =  -9.8437500000000E-03
(PID.TID 0000.0001) %MON dynstat_uvel_mean            =   0.0000000000000E+00
(PID.TID 0000.0001) %MON dynstat_uvel_sd              =   5.7727978755972E-03
(PID.TID 0000.0001) %MON dynstat_uvel_del2            =   1.0089048364799E-20
(PID.TID 0000.0001) %MON dynstat_vvel_max             =   9.8437500000000E-03
(PID.TID 0000.0001) %MON dynstat_vvel_min             =  -9.8437500000000E-03
(PID.TID 0000.0001) %MON dynstat_vvel_mean            =   0.0000000000000E+00
(PID.TID 0000.0001) %MON dynstat_vvel_sd              =   5.7727978755972E-03
(PID.TID 0000.0001) %MON dynstat_vvel_del2            =   1.0089048364799E-20
(PID.TID 0000.0001) %MON dynstat_wvel_max             =   1.1914062500000E-05
(PID.TID 0000.0001) %MON dynstat_wvel_min             =  -1.1914062500000E-05
(PID.TID 0000.0001) %MON dynstat_wvel_mean            =   3.4694469519536E-25
(PID.TID 0000.0001) %MON dynstat_wvel_sd              =   1.7200872247780E-06
(PID.TID 0000.0001) %MON dynstat_wvel_del2            =   2.8187489626940E-08
(PID.TID 0000.0001) %MON dynstat_theta_max            =  -1.6200000000000E+00
(PID.TID 0000.0001) %MON dynstat_theta_min            =  -1.6200000000000E+00
(PID.TID 0000.0001) %MON dynstat_theta_mean           =  -1.6200000000000E+00
(PID.TID 0000.0001) %MON dynstat_theta_sd             =   0.0000000000000E+00
(PID.TID 0000.0001) %MON dynstat_theta_del2           =   0.0000000000000E+00
(PID.TID 0000.0001) %MON dynstat_salt_max             =   3.0000000000000E+01
(PID.TID 0000.0001) %MON dynstat_salt_min             =   3.0000000000000E+01
(PID.TID 0000.0001) %MON dynstat_salt_mean            =   3.0000000000000E+01
(PID.TID 0000.0001) %MON dynstat_salt_sd              =   0.0000000000000E+00
(PID.TID 0000.0001) %MON dynstat_salt_del2            =   0.0000000000000E+00
(PID.TID 0000.0001) %MON trAdv_CFL_u_max              =   3.0761718750000E-06
(PID.TID 0000.0001) %MON trAdv_CFL_v_max              =   3.0761718750000E-06
(PID.TID 0000.0001) %MON trAdv_CFL_w_max              =   2.9785156250000E-06
(PID.TID 0000.0001) %MON advcfl_uvel_max              =   3.0761718750000E-06
(PID.TID 0000.0001) %MON advcfl_vvel_max              =   3.0761718750000E-06
(PID.TID 0000.0001) %MON advcfl_wvel_max              =   5.9570312500000E-06
(PID.TID 0000.0001) %MON advcfl_W_hf_max              =   0.0000000000000E+00
(PID.TID 0000.0001) %MON pe_b_mean                    =   0.0000000000000E+00
(PID.TID 0000.0001) %MON ke_max                       =   9.0844726562500E-05
(PID.TID 0000.0001) %MON ke_mean                      =   3.2804489135742E-05
(PID.TID 0000.0001) %MON ke_vol                       =   2.6214400000000E+12
(PID.TID 0000.0001) %MON vort_r_min                   =  -7.8125000000000E-08
(PID.TID 0000.0001) %MON vort_r_max                   =   1.2304687500000E-06
(PID.TID 0000.0001) %MON vort_a_mean                  =   1.4856000000000E-04
(PID.TID 0000.0001) %MON vort_a_sd                    =   1.5312918562496E-06
(PID.TID 0000.0001) %MON vort_p_mean                  =   1.5552375000000E-04
(PID.TID 0000.0001) %MON vort_p_sd                    =   5.5921473110222E-05
(PID.TID 0000.0001) %MON surfExpan_theta_mean         =   0.0000000000000E+00
(PID.TID 0000.0001) %MON surfExpan_salt_mean          =   1.3877787807814E-23
(PID.TID 0000.0001) // =======================================================
(PID.TID 0000.0001) // End MONITOR dynamic field statistics
(PID.TID 0000.0001) // =======================================================
(PID.TID 0000.0001) // =======================================================
(PID.TID 0000.0001) // Begin MONITOR SEAICE statistics
(PID.TID 0000.0001) // =======================================================
(PID.TID 0000.0001) %MON seaice_tsnumber              =                     2
(PID.TID 0000.0001) %MON seaice_time_sec              =   5.0000000000000E+00
(PID.TID 0000.0001) %MON seaice_uice_max              =   3.5028826258736E-03
(PID.TID 0000.0001) %MON seaice_uice_min              =  -3.5870811085623E-03
(PID.TID 0000.0001) %MON seaice_uice_mean             =  -8.9078162107924E-08
(PID.TID 0000.0001) %MON seaice_uice_sd               =   1.5071903862679E-03
(PID.TID 0000.0001) %MON seaice_uice_del2             =   3.5374928194490E-07
(PID.TID 0000.0001) %MON seaice_vice_max              =   3.4170747231668E-03
(PID.TID 0000.0001) %MON seaice_vice_min              =  -3.4632335845186E-03
(PID.TID 0000.0001) %MON seaice_vice_mean             =   3.8335259653636E-07
(PID.TID 0000.0001) %MON seaice_vice_sd               =   1.4997362896519E-03
(PID.TID 0000.0001) %MON seaice_vice_del2             =   3.5161112363617E-07
(PID.TID 0000.0001) %MON seaice_area_max              =   1.0000000000000E+00
(PID.TID 0000.0001) %MON seaice_area_min              =   9.9999977126199E-01
(PID.TID 0000.0001) %MON seaice_area_mean             =   9.9999998716397E-01
(PID.TID 0000.0001) %MON seaice_area_sd               =   3.1381343166174E-08
(PID.TID 0000.0001) %MON seaice_area_del2             =   4.0939394120615E-10
(PID.TID 0000.0001) %MON seaice_heff_max              =   3.0999866972138E-01
(PID.TID 0000.0001) %MON seaice_heff_min              =   2.9006056257448E-01
(PID.TID 0000.0001) %MON seaice_heff_mean             =   3.0067126525963E-01
(PID.TID 0000.0001) %MON seaice_heff_sd               =   5.0069224988738E-03
(PID.TID 0000.0001) %MON seaice_heff_del2             =   1.2853747629622E-05
(PID.TID 0000.0001) %MON seaice_hsnow_max             =   0.0000000000000E+00
(PID.TID 0000.0001) %MON seaice_hsnow_min             =   0.0000000000000E+00
(PID.TID 0000.0001) %MON seaice_hsnow_mean            =   0.0000000000000E+00
(PID.TID 0000.0001) %MON seaice_hsnow_sd              =   0.0000000000000E+00
(PID.TID 0000.0001) %MON seaice_hsnow_del2            =   0.0000000000000E+00
(PID.TID 0000.0001) // =======================================================
(PID.TID 0000.0001) // End MONITOR SEAICE statistics
(PID.TID 0000.0001) // =======================================================
 Computing Diagnostic #    163  SIuice       Counter:       1   Parms: UU      M1      
           Vector  Mate for  SIuice       Diagnostic #    164  SIvice   exists 
 Computing Diagnostic #    164  SIvice       Counter:       1   Parms: VV      M1      
           Vector  Mate for  SIvice       Diagnostic #    163  SIuice   exists 
 Computing Diagnostic #    149  SIheff       Counter:       1   Parms: SM      M1      
 Computing Diagnostic #    146  SIarea       Counter:       1   Parms: SM      M1      
 Computing Diagnostic #    228  SIshear      Counter:       1   Parms: SM      M1      
 Computing Diagnostic #    233  SIcohes      Counter:       1   Parms: SM      M1      
 Computing Diagnostic #    221  SIsig1       Counter:       1   Parms: SM      M1      
 Computing Diagnostic #    222  SIsig2       Counter:       1   Parms: SM      M1      
 Computing Diagnostic #    231  SIdamage     Counter:       1   Parms: SM      M1      
 Computing Diagnostic #    165  SItaux       Counter:       1   Parms: UU      U1      
           Vector  Mate for  SItaux       Diagnostic #    166  SItauy   exists 
 Computing Diagnostic #    166  SItauy       Counter:       1   Parms: VV      U1      
           Vector  Mate for  SItauy       Diagnostic #    165  SItaux   exists 
 Computing Diagnostic #    133  EXFuwind     Counter:       1   Parms: UM      U1      
 Computing Diagnostic #    134  EXFvwind     Counter:       1   Parms: VM      U1      
(PID.TID 0000.0001)  S/R SEAICE_KRYLOV: Picard iterate / total, KRYLOVgamma_lin, initial norm =       1    201 0.10000E+00 0.11337E+00
(PID.TID 0000.0001)  S/R SEAICE_KRYLOV: Picard iterate / total =      1 /    201, Nb. of FGMRES iterations =      1
(PID.TID 0000.0001)  S/R SEAICE_KRYLOV: Picard iterate / total, KRYLOVgamma_lin, initial norm =       2    202 0.50000E-01 0.18410E-03
(PID.TID 0000.0001)  S/R SEAICE_KRYLOV: Picard iterate / total =      2 /    202, Nb. of FGMRES iterations =      1
(PID.TID 0000.0001)  S/R SEAICE_KRYLOV: Picard iterate / total, KRYLOVgamma_lin, initial norm =       3    203 0.50000E-01 0.60306E-04
(PID.TID 0000.0001)  S/R SEAICE_KRYLOV: Picard iterate / total =      3 /    203, Nb. of FGMRES iterations =      1
(PID.TID 0000.0001)  S/R SEAICE_KRYLOV: Picard iterate / total, KRYLOVgamma_lin, initial norm =       4    204 0.33333E-01 0.33045E-04
(PID.TID 0000.0001)  S/R SEAICE_KRYLOV: Picard iterate / total =      4 /    204, Nb. of FGMRES iterations =      1
(PID.TID 0000.0001)  S/R SEAICE_KRYLOV: Picard iterate / total, KRYLOVgamma_lin, initial norm =       5    205 0.33333E-01 0.16200E-04
(PID.TID 0000.0001)  S/R SEAICE_KRYLOV: Picard iterate / total =      5 /    205, Nb. of FGMRES iterations =      1
(PID.TID 0000.0001)  S/R SEAICE_KRYLOV: Picard iterate / total, KRYLOVgamma_lin, initial norm =       6    206 0.33333E-01 0.81349E-05
(PID.TID 0000.0001)  S/R SEAICE_KRYLOV: Picard iterate / total =      6 /    206, Nb. of FGMRES iterations =      1
(PID.TID 0000.0001)  S/R SEAICE_KRYLOV: Picard iterate / total, KRYLOVgamma_lin, initial norm =       7    207 0.33333E-01 0.40637E-05
(PID.TID 0000.0001)  S/R SEAICE_KRYLOV: Picard iterate / total =      7 /    207, Nb. of FGMRES iterations =      1
(PID.TID 0000.0001)  S/R SEAICE_KRYLOV: Picard iterate / total, KRYLOVgamma_lin, initial norm =       8    208 0.25000E-01 0.20323E-05
(PID.TID 0000.0001)  S/R SEAICE_KRYLOV: Picard iterate / total =      8 /    208, Nb. of FGMRES iterations =      1
(PID.TID 0000.0001)  S/R SEAICE_KRYLOV: Picard iterate / total, KRYLOVgamma_lin, initial norm =       9    209 0.20000E-01 0.10161E-05
(PID.TID 0000.0001)  S/R SEAICE_KRYLOV: Picard iterate / total =      9 /    209, Nb. of FGMRES iterations =      1
(PID.TID 0000.0001)  S/R SEAICE_KRYLOV: Picard iterate / total, KRYLOVgamma_lin, initial norm =      10    210 0.12500E-01 0.50804E-06
(PID.TID 0000.0001)  S/R SEAICE_KRYLOV: Picard iterate / total =     10 /    210, Nb. of FGMRES iterations =      1
(PID.TID 0000.0001)  S/R SEAICE_KRYLOV: Picard iterate / total, KRYLOVgamma_lin, initial norm =      11    211 0.12500E-01 0.25402E-06
(PID.TID 0000.0001)  S/R SEAICE_KRYLOV: Picard iterate / total =     11 /    211, Nb. of FGMRES iterations =      1
(PID.TID 0000.0001)  S/R SEAICE_KRYLOV: Picard iterate / total, KRYLOVgamma_lin, initial norm =      12    212 0.12500E-01 0.12701E-06
(PID.TID 0000.0001)  S/R SEAICE_KRYLOV: Picard iterate / total =     12 /    212, Nb. of FGMRES iterations =      1
(PID.TID 0000.0001)  S/R SEAICE_KRYLOV: Picard iterate / total, KRYLOVgamma_lin, initial norm =      13    213 0.12500E-01 0.63505E-07
(PID.TID 0000.0001)  S/R SEAICE_KRYLOV: Picard iterate / total =     13 /    213, Nb. of FGMRES iterations =      1
(PID.TID 0000.0001)  S/R SEAICE_KRYLOV: Picard iterate / total, KRYLOVgamma_lin, initial norm =      14    214 0.12500E-01 0.31753E-07
(PID.TID 0000.0001)  S/R SEAICE_KRYLOV: Picard iterate / total =     14 /    214, Nb. of FGMRES iterations =      1
(PID.TID 0000.0001)  S/R SEAICE_KRYLOV: Picard iterate / total, KRYLOVgamma_lin, initial norm =      15    215 0.12500E-01 0.15876E-07
(PID.TID 0000.0001)  S/R SEAICE_KRYLOV: Picard iterate / total =     15 /    215, Nb. of FGMRES iterations =      1
(PID.TID 0000.0001)  S/R SEAICE_KRYLOV: Picard iterate / total, KRYLOVgamma_lin, initial norm =      16    216 0.12500E-01 0.79382E-08
(PID.TID 0000.0001)  S/R SEAICE_KRYLOV: Picard iterate / total =     16 /    216, Nb. of FGMRES iterations =      1
(PID.TID 0000.0001)  S/R SEAICE_KRYLOV: Picard iterate / total, KRYLOVgamma_lin, initial norm =      17    217 0.12500E-01 0.39691E-08
(PID.TID 0000.0001)  S/R SEAICE_KRYLOV: Picard iterate / total =     17 /    217, Nb. of FGMRES iterations =      1
(PID.TID 0000.0001)  S/R SEAICE_KRYLOV: Picard iterate / total, KRYLOVgamma_lin, initial norm =      18    218 0.12500E-01 0.19845E-08
(PID.TID 0000.0001)  S/R SEAICE_KRYLOV: Picard iterate / total =     18 /    218, Nb. of FGMRES iterations =      1
(PID.TID 0000.0001)  S/R SEAICE_KRYLOV: Picard iterate / total, KRYLOVgamma_lin, initial norm =      19    219 0.12500E-01 0.99227E-09
(PID.TID 0000.0001)  S/R SEAICE_KRYLOV: Picard iterate / total =     19 /    219, Nb. of FGMRES iterations =      1
(PID.TID 0000.0001)  S/R SEAICE_KRYLOV: Picard iterate / total, KRYLOVgamma_lin, initial norm =      20    220 0.12500E-01 0.49614E-09
(PID.TID 0000.0001)  S/R SEAICE_KRYLOV: Picard iterate / total =     20 /    220, Nb. of FGMRES iterations =      1
(PID.TID 0000.0001)  S/R SEAICE_KRYLOV: Picard iterate / total, KRYLOVgamma_lin, initial norm =      21    221 0.12500E-01 0.24807E-09
(PID.TID 0000.0001)  S/R SEAICE_KRYLOV: Picard iterate / total =     21 /    221, Nb. of FGMRES iterations =      1
(PID.TID 0000.0001)  S/R SEAICE_KRYLOV: Picard iterate / total, KRYLOVgamma_lin, initial norm =      22    222 0.12500E-01 0.12403E-09
(PID.TID 0000.0001)  S/R SEAICE_KRYLOV: Picard iterate / total =     22 /    222, Nb. of FGMRES iterations =      1
(PID.TID 0000.0001)  S/R SEAICE_KRYLOV: Picard iterate / total, KRYLOVgamma_lin, initial norm =      23    223 0.12500E-01 0.62017E-10
(PID.TID 0000.0001)  S/R SEAICE_KRYLOV: Picard iterate / total =     23 /    223, Nb. of FGMRES iterations =      1
(PID.TID 0000.0001)  S/R SEAICE_KRYLOV: Picard iterate / total, KRYLOVgamma_lin, initial norm =      24    224 0.12500E-01 0.31009E-10
(PID.TID 0000.0001)  S/R SEAICE_KRYLOV: Picard iterate / total =     24 /    224, Nb. of FGMRES iterations =      1
(PID.TID 0000.0001)  S/R SEAICE_KRYLOV: Picard iterate / total, KRYLOVgamma_lin, initial norm =      25    225 0.12500E-01 0.15504E-10
(PID.TID 0000.0001)  S/R SEAICE_KRYLOV: Picard iterate / total =     25 /    225, Nb. of FGMRES iterations =      1
(PID.TID 0000.0001)  S/R SEAICE_KRYLOV: Picard iterate / total, KRYLOVgamma_lin, initial norm =      26    226 0.12500E-01 0.77521E-11
(PID.TID 0000.0001)  S/R SEAICE_KRYLOV: Picard iterate / total =     26 /    226, Nb. of FGMRES iterations =      1
(PID.TID 0000.0001)  S/R SEAICE_KRYLOV: Picard iterate / total, KRYLOVgamma_lin, initial norm =      27    227 0.12500E-01 0.38761E-11
(PID.TID 0000.0001)  S/R SEAICE_KRYLOV: Picard iterate / total =     27 /    227, Nb. of FGMRES iterations =      1
(PID.TID 0000.0001)  S/R SEAICE_KRYLOV: Picard iterate / total, KRYLOVgamma_lin, initial norm =      28    228 0.12500E-01 0.19380E-11
(PID.TID 0000.0001)  S/R SEAICE_KRYLOV: Picard iterate / total =     28 /    228, Nb. of FGMRES iterations =      1
(PID.TID 0000.0001)  S/R SEAICE_KRYLOV: Picard iterate / total, KRYLOVgamma_lin, initial norm =      29    229 0.12500E-01 0.96902E-12
(PID.TID 0000.0001)  S/R SEAICE_KRYLOV: Picard iterate / total =     29 /    229, Nb. of FGMRES iterations =      1
(PID.TID 0000.0001)  S/R SEAICE_KRYLOV: Picard iterate / total, KRYLOVgamma_lin, initial norm =      30    230 0.12500E-01 0.48451E-12
(PID.TID 0000.0001)  S/R SEAICE_KRYLOV: Picard iterate / total =     30 /    230, Nb. of FGMRES iterations =      1
(PID.TID 0000.0001)  S/R SEAICE_KRYLOV: Picard iterate / total, KRYLOVgamma_lin, initial norm =      31    231 0.12500E-01 0.24225E-12
(PID.TID 0000.0001)  S/R SEAICE_KRYLOV: Picard iterate / total =     31 /    231, Nb. of FGMRES iterations =      1
(PID.TID 0000.0001)  S/R SEAICE_KRYLOV: Picard iterate / total, KRYLOVgamma_lin, initial norm =      32    232 0.12500E-01 0.12113E-12
(PID.TID 0000.0001)  S/R SEAICE_KRYLOV: Picard iterate / total =     32 /    232, Nb. of FGMRES iterations =      1
(PID.TID 0000.0001)  S/R SEAICE_KRYLOV: Picard iterate / total, KRYLOVgamma_lin, final   norm =      33    233 0.12500E-01 0.60564E-13
(PID.TID 0000.0001)  // =======================================================
(PID.TID 0000.0001)  // Begin KRYLOV statistics
(PID.TID 0000.0001)  // =======================================================
(PID.TID 0000.0001)  %KRYLOV_MON: time step              =          3
(PID.TID 0000.0001)  %KRYLOV_MON: Nb. of time steps      =          1
(PID.TID 0000.0001)  %KRYLOV_MON: Nb. of Picard steps    =         33
(PID.TID 0000.0001)  %KRYLOV_MON: Nb. of Krylov steps    =         32
(PID.TID 0000.0001)  %KRYLOV_MON: Nb. of Picard failures =          0
(PID.TID 0000.0001)  %KRYLOV_MON: Nb. of Krylov failures =          0
(PID.TID 0000.0001)  // =======================================================
(PID.TID 0000.0001)  // End KRYLOV statistics
(PID.TID 0000.0001)  // =======================================================
(PID.TID 0000.0001)  S/R SEAICE_KRYLOV: Total number FGMRES iterations =     32 in timestep          3
(PID.TID 0000.0001) // =======================================================
(PID.TID 0000.0001) // Begin MONITOR dynamic field statistics
(PID.TID 0000.0001) // =======================================================
(PID.TID 0000.0001) %MON time_tsnumber                =                     3
(PID.TID 0000.0001) %MON time_secondsf                =   7.5000000000000E+00
(PID.TID 0000.0001) %MON dynstat_eta_max              =   0.0000000000000E+00
(PID.TID 0000.0001) %MON dynstat_eta_min              =   0.0000000000000E+00
(PID.TID 0000.0001) %MON dynstat_eta_mean             =   0.0000000000000E+00
(PID.TID 0000.0001) %MON dynstat_eta_sd               =   0.0000000000000E+00
(PID.TID 0000.0001) %MON dynstat_eta_del2             =   0.0000000000000E+00
(PID.TID 0000.0001) %MON dynstat_uvel_max             =   9.8437500000000E-03
(PID.TID 0000.0001) %MON dynstat_uvel_min             =  -9.8437500000000E-03
(PID.TID 0000.0001) %MON dynstat_uvel_mean            =   0.0000000000000E+00
(PID.TID 0000.0001) %MON dynstat_uvel_sd              =   5.7727978755972E-03
(PID.TID 0000.0001) %MON dynstat_uvel_del2            =   1.0089048364799E-20
(PID.TID 0000.0001) %MON dynstat_vvel_max             =   9.8437500000000E-03
(PID.TID 0000.0001) %MON dynstat_vvel_min             =  -9.8437500000000E-03
(PID.TID 0000.0001) %MON dynstat_vvel_mean            =   0.0000000000000E+00
(PID.TID 0000.0001) %MON dynstat_vvel_sd              =   5.7727978755972E-03
(PID.TID 0000.0001) %MON dynstat_vvel_del2            =   1.0089048364799E-20
(PID.TID 0000.0001) %MON dynstat_wvel_max             =   1.1914062500000E-05
(PID.TID 0000.0001) %MON dynstat_wvel_min             =  -1.1914062500000E-05
(PID.TID 0000.0001) %MON dynstat_wvel_mean            =   3.4694469519536E-25
(PID.TID 0000.0001) %MON dynstat_wvel_sd              =   1.7200872247780E-06
(PID.TID 0000.0001) %MON dynstat_wvel_del2            =   2.8187489626940E-08
(PID.TID 0000.0001) %MON dynstat_theta_max            =  -1.6200000000000E+00
(PID.TID 0000.0001) %MON dynstat_theta_min            =  -1.6200000000000E+00
(PID.TID 0000.0001) %MON dynstat_theta_mean           =  -1.6200000000000E+00
(PID.TID 0000.0001) %MON dynstat_theta_sd             =   0.0000000000000E+00
(PID.TID 0000.0001) %MON dynstat_theta_del2           =   0.0000000000000E+00
(PID.TID 0000.0001) %MON dynstat_salt_max             =   3.0000000000000E+01
(PID.TID 0000.0001) %MON dynstat_salt_min             =   3.0000000000000E+01
(PID.TID 0000.0001) %MON dynstat_salt_mean            =   3.0000000000000E+01
(PID.TID 0000.0001) %MON dynstat_salt_sd              =   0.0000000000000E+00
(PID.TID 0000.0001) %MON dynstat_salt_del2            =   0.0000000000000E+00
(PID.TID 0000.0001) %MON trAdv_CFL_u_max              =   3.0761718750000E-06
(PID.TID 0000.0001) %MON trAdv_CFL_v_max              =   3.0761718750000E-06
(PID.TID 0000.0001) %MON trAdv_CFL_w_max              =   2.9785156250000E-06
(PID.TID 0000.0001) %MON advcfl_uvel_max              =   3.0761718750000E-06
(PID.TID 0000.0001) %MON advcfl_vvel_max              =   3.0761718750000E-06
(PID.TID 0000.0001) %MON advcfl_wvel_max              =   5.9570312500000E-06
(PID.TID 0000.0001) %MON advcfl_W_hf_max              =   0.0000000000000E+00
(PID.TID 0000.0001) %MON pe_b_mean                    =   0.0000000000000E+00
(PID.TID 0000.0001) %MON ke_max                       =   9.0844726562500E-05
(PID.TID 0000.0001) %MON ke_mean                      =   3.2804489135742E-05
(PID.TID 0000.0001) %MON ke_vol                       =   2.6214400000000E+12
(PID.TID 0000.0001) %MON vort_r_min                   =  -7.8125000000000E-08
(PID.TID 0000.0001) %MON vort_r_max                   =   1.2304687500000E-06
(PID.TID 0000.0001) %MON vort_a_mean                  =   1.4856000000000E-04
(PID.TID 0000.0001) %MON vort_a_sd                    =   1.5312918562496E-06
(PID.TID 0000.0001) %MON vort_p_mean                  =   1.5552375000000E-04
(PID.TID 0000.0001) %MON vort_p_sd                    =   5.5921473110222E-05
(PID.TID 0000.0001) %MON surfExpan_theta_mean         =   0.0000000000000E+00
(PID.TID 0000.0001) %MON surfExpan_salt_mean          =   1.3877787807814E-23
(PID.TID 0000.0001) // =======================================================
(PID.TID 0000.0001) // End MONITOR dynamic field statistics
(PID.TID 0000.0001) // =======================================================
(PID.TID 0000.0001) // =======================================================
(PID.TID 0000.0001) // Begin MONITOR SEAICE statistics
(PID.TID 0000.0001) // =======================================================
(PID.TID 0000.0001) %MON seaice_tsnumber              =                     3
(PID.TID 0000.0001) %MON seaice_time_sec              =   7.5000000000000E+00
(PID.TID 0000.0001) %MON seaice_uice_max              =   5.2451215470894E-03
(PID.TID 0000.0001) %MON seaice_uice_min              =  -5.3690004746120E-03
(PID.TID 0000.0001) %MON seaice_uice_mean             =  -1.2657287650586E-07
(PID.TID 0000.0001) %MON seaice_uice_sd               =   2.2566156522539E-03
(PID.TID 0000.0001) %MON seaice_uice_del2             =   5.7556725665893E-07
(PID.TID 0000.0001) %MON seaice_vice_max              =   5.1172209952317E-03
(PID.TID 0000.0001) %MON seaice_vice_min              =  -5.1855892952392E-03
(PID.TID 0000.0001) %MON seaice_vice_mean             =   5.6360909571160E-07
(PID.TID 0000.0001) %MON seaice_vice_sd               =   2.2454762694894E-03
(PID.TID 0000.0001) %MON seaice_vice_del2             =   5.7356839862961E-07
(PID.TID 0000.0001) %MON seaice_area_max              =   1.0000000000000E+00
(PID.TID 0000.0001) %MON seaice_area_min              =   9.9999955882033E-01
(PID.TID 0000.0001) %MON seaice_area_mean             =   9.9999997441775E-01
(PID.TID 0000.0001) %MON seaice_area_sd               =   6.0647343164833E-08
(PID.TID 0000.0001) %MON seaice_area_del2             =   7.2613464877357E-10
(PID.TID 0000.0001) %MON seaice_heff_max              =   3.0999866635412E-01
(PID.TID 0000.0001) %MON seaice_heff_min              =   2.9006055904905E-01
(PID.TID 0000.0001) %MON seaice_heff_mean             =   3.0067126525963E-01
(PID.TID 0000.0001) %MON seaice_heff_sd               =   5.0069226126205E-03
(PID.TID 0000.0001) %MON seaice_heff_del2             =   1.2853747581365E-05
(PID.TID 0000.0001) %MON seaice_hsnow_max             =   0.0000000000000E+00
(PID.TID 0000.0001) %MON seaice_hsnow_min             =   0.0000000000000E+00
(PID.TID 0000.0001) %MON seaice_hsnow_mean            =   0.0000000000000E+00
(PID.TID 0000.0001) %MON seaice_hsnow_sd              =   0.0000000000000E+00
(PID.TID 0000.0001) %MON seaice_hsnow_del2            =   0.0000000000000E+00
(PID.TID 0000.0001) // =======================================================
(PID.TID 0000.0001) // End MONITOR SEAICE statistics
(PID.TID 0000.0001) // =======================================================
 Computing Diagnostic #    163  SIuice       Counter:       1   Parms: UU      M1      
           Vector  Mate for  SIuice       Diagnostic #    164  SIvice   exists 
 Computing Diagnostic #    164  SIvice       Counter:       1   Parms: VV      M1      
           Vector  Mate for  SIvice       Diagnostic #    163  SIuice   exists 
 Computing Diagnostic #    149  SIheff       Counter:       1   Parms: SM      M1      
 Computing Diagnostic #    146  SIarea       Counter:       1   Parms: SM      M1      
 Computing Diagnostic #    228  SIshear      Counter:       1   Parms: SM      M1      
 Computing Diagnostic #    233  SIcohes      Counter:       1   Parms: SM      M1      
 Computing Diagnostic #    221  SIsig1       Counter:       1   Parms: SM      M1      
 Computing Diagnostic #    222  SIsig2       Counter:       1   Parms: SM      M1      
 Computing Diagnostic #    231  SIdamage     Counter:       1   Parms: SM      M1      
 Computing Diagnostic #    165  SItaux       Counter:       1   Parms: UU      U1      
           Vector  Mate for  SItaux       Diagnostic #    166  SItauy   exists 
 Computing Diagnostic #    166  SItauy       Counter:       1   Parms: VV      U1      
           Vector  Mate for  SItauy       Diagnostic #    165  SItaux   exists 
 Computing Diagnostic #    133  EXFuwind     Counter:       1   Parms: UM      U1      
 Computing Diagnostic #    134  EXFvwind     Counter:       1   Parms: VM      U1      
(PID.TID 0000.0001)  S/R SEAICE_KRYLOV: Picard iterate / total, KRYLOVgamma_lin, initial norm =       1    301 0.10000E+00 0.11292E+00
(PID.TID 0000.0001)  S/R SEAICE_KRYLOV: Picard iterate / total =      1 /    301, Nb. of FGMRES iterations =      1
(PID.TID 0000.0001)  S/R SEAICE_KRYLOV: Picard iterate / total, KRYLOVgamma_lin, initial norm =       2    302 0.50000E-01 0.22864E-03
(PID.TID 0000.0001)  S/R SEAICE_KRYLOV: Picard iterate / total =      2 /    302, Nb. of FGMRES iterations =      1
(PID.TID 0000.0001)  S/R SEAICE_KRYLOV: Picard iterate / total, KRYLOVgamma_lin, initial norm =       3    303 0.50000E-01 0.42144E-04
(PID.TID 0000.0001)  S/R SEAICE_KRYLOV: Picard iterate / total =      3 /    303, Nb. of FGMRES iterations =      1
(PID.TID 0000.0001)  S/R SEAICE_KRYLOV: Picard iterate / total, KRYLOVgamma_lin, initial norm =       4    304 0.33333E-01 0.25666E-04
(PID.TID 0000.0001)  S/R SEAICE_KRYLOV: Picard iterate / total =      4 /    304, Nb. of FGMRES iterations =      1
(PID.TID 0000.0001)  S/R SEAICE_KRYLOV: Picard iterate / total, KRYLOVgamma_lin, initial norm =       5    305 0.33333E-01 0.12467E-04
(PID.TID 0000.0001)  S/R SEAICE_KRYLOV: Picard iterate / total =      5 /    305, Nb. of FGMRES iterations =      1
(PID.TID 0000.0001)  S/R SEAICE_KRYLOV: Picard iterate / total, KRYLOVgamma_lin, initial norm =       6    306 0.33333E-01 0.62616E-05
(PID.TID 0000.0001)  S/R SEAICE_KRYLOV: Picard iterate / total =      6 /    306, Nb. of FGMRES iterations =      1
(PID.TID 0000.0001)  S/R SEAICE_KRYLOV: Picard iterate / total, KRYLOVgamma_lin, initial norm =       7    307 0.33333E-01 0.31286E-05
(PID.TID 0000.0001)  S/R SEAICE_KRYLOV: Picard iterate / total =      7 /    307, Nb. of FGMRES iterations =      1
(PID.TID 0000.0001)  S/R SEAICE_KRYLOV: Picard iterate / total, KRYLOVgamma_lin, initial norm =       8    308 0.25000E-01 0.15645E-05
(PID.TID 0000.0001)  S/R SEAICE_KRYLOV: Picard iterate / total =      8 /    308, Nb. of FGMRES iterations =      1
(PID.TID 0000.0001)  S/R SEAICE_KRYLOV: Picard iterate / total, KRYLOVgamma_lin, initial norm =       9    309 0.20000E-01 0.78222E-06
(PID.TID 0000.0001)  S/R SEAICE_KRYLOV: Picard iterate / total =      9 /    309, Nb. of FGMRES iterations =      1
(PID.TID 0000.0001)  S/R SEAICE_KRYLOV: Picard iterate / total, KRYLOVgamma_lin, initial norm =      10    310 0.12500E-01 0.39111E-06
(PID.TID 0000.0001)  S/R SEAICE_KRYLOV: Picard iterate / total =     10 /    310, Nb. of FGMRES iterations =      1
(PID.TID 0000.0001)  S/R SEAICE_KRYLOV: Picard iterate / total, KRYLOVgamma_lin, initial norm =      11    311 0.12500E-01 0.19556E-06
(PID.TID 0000.0001)  S/R SEAICE_KRYLOV: Picard iterate / total =     11 /    311, Nb. of FGMRES iterations =      1
(PID.TID 0000.0001)  S/R SEAICE_KRYLOV: Picard iterate / total, KRYLOVgamma_lin, initial norm =      12    312 0.12500E-01 0.97778E-07
(PID.TID 0000.0001)  S/R SEAICE_KRYLOV: Picard iterate / total =     12 /    312, Nb. of FGMRES iterations =      1
(PID.TID 0000.0001)  S/R SEAICE_KRYLOV: Picard iterate / total, KRYLOVgamma_lin, initial norm =      13    313 0.12500E-01 0.48889E-07
(PID.TID 0000.0001)  S/R SEAICE_KRYLOV: Picard iterate / total =     13 /    313, Nb. of FGMRES iterations =      1
(PID.TID 0000.0001)  S/R SEAICE_KRYLOV: Picard iterate / total, KRYLOVgamma_lin, initial norm =      14    314 0.12500E-01 0.24445E-07
(PID.TID 0000.0001)  S/R SEAICE_KRYLOV: Picard iterate / total =     14 /    314, Nb. of FGMRES iterations =      1
(PID.TID 0000.0001)  S/R SEAICE_KRYLOV: Picard iterate / total, KRYLOVgamma_lin, initial norm =      15    315 0.12500E-01 0.12222E-07
(PID.TID 0000.0001)  S/R SEAICE_KRYLOV: Picard iterate / total =     15 /    315, Nb. of FGMRES iterations =      1
(PID.TID 0000.0001)  S/R SEAICE_KRYLOV: Picard iterate / total, KRYLOVgamma_lin, initial norm =      16    316 0.12500E-01 0.61111E-08
(PID.TID 0000.0001)  S/R SEAICE_KRYLOV: Picard iterate / total =     16 /    316, Nb. of FGMRES iterations =      1
(PID.TID 0000.0001)  S/R SEAICE_KRYLOV: Picard iterate / total, KRYLOVgamma_lin, initial norm =      17    317 0.12500E-01 0.30556E-08
(PID.TID 0000.0001)  S/R SEAICE_KRYLOV: Picard iterate / total =     17 /    317, Nb. of FGMRES iterations =      1
(PID.TID 0000.0001)  S/R SEAICE_KRYLOV: Picard iterate / total, KRYLOVgamma_lin, initial norm =      18    318 0.12500E-01 0.15278E-08
(PID.TID 0000.0001)  S/R SEAICE_KRYLOV: Picard iterate / total =     18 /    318, Nb. of FGMRES iterations =      1
(PID.TID 0000.0001)  S/R SEAICE_KRYLOV: Picard iterate / total, KRYLOVgamma_lin, initial norm =      19    319 0.12500E-01 0.76389E-09
(PID.TID 0000.0001)  S/R SEAICE_KRYLOV: Picard iterate / total =     19 /    319, Nb. of FGMRES iterations =      1
(PID.TID 0000.0001)  S/R SEAICE_KRYLOV: Picard iterate / total, KRYLOVgamma_lin, initial norm =      20    320 0.12500E-01 0.38195E-09
(PID.TID 0000.0001)  S/R SEAICE_KRYLOV: Picard iterate / total =     20 /    320, Nb. of FGMRES iterations =      1
(PID.TID 0000.0001)  S/R SEAICE_KRYLOV: Picard iterate / total, KRYLOVgamma_lin, initial norm =      21    321 0.12500E-01 0.19097E-09
(PID.TID 0000.0001)  S/R SEAICE_KRYLOV: Picard iterate / total =     21 /    321, Nb. of FGMRES iterations =      1
(PID.TID 0000.0001)  S/R SEAICE_KRYLOV: Picard iterate / total, KRYLOVgamma_lin, initial norm =      22    322 0.12500E-01 0.95486E-10
(PID.TID 0000.0001)  S/R SEAICE_KRYLOV: Picard iterate / total =     22 /    322, Nb. of FGMRES iterations =      1
(PID.TID 0000.0001)  S/R SEAICE_KRYLOV: Picard iterate / total, KRYLOVgamma_lin, initial norm =      23    323 0.12500E-01 0.47743E-10
(PID.TID 0000.0001)  S/R SEAICE_KRYLOV: Picard iterate / total =     23 /    323, Nb. of FGMRES iterations =      1
(PID.TID 0000.0001)  S/R SEAICE_KRYLOV: Picard iterate / total, KRYLOVgamma_lin, initial norm =      24    324 0.12500E-01 0.23872E-10
(PID.TID 0000.0001)  S/R SEAICE_KRYLOV: Picard iterate / total =     24 /    324, Nb. of FGMRES iterations =      1
(PID.TID 0000.0001)  S/R SEAICE_KRYLOV: Picard iterate / total, KRYLOVgamma_lin, initial norm =      25    325 0.12500E-01 0.11936E-10
(PID.TID 0000.0001)  S/R SEAICE_KRYLOV: Picard iterate / total =     25 /    325, Nb. of FGMRES iterations =      1
(PID.TID 0000.0001)  S/R SEAICE_KRYLOV: Picard iterate / total, KRYLOVgamma_lin, initial norm =      26    326 0.12500E-01 0.59679E-11
(PID.TID 0000.0001)  S/R SEAICE_KRYLOV: Picard iterate / total =     26 /    326, Nb. of FGMRES iterations =      1
(PID.TID 0000.0001)  S/R SEAICE_KRYLOV: Picard iterate / total, KRYLOVgamma_lin, initial norm =      27    327 0.12500E-01 0.29840E-11
(PID.TID 0000.0001)  S/R SEAICE_KRYLOV: Picard iterate / total =     27 /    327, Nb. of FGMRES iterations =      1
(PID.TID 0000.0001)  S/R SEAICE_KRYLOV: Picard iterate / total, KRYLOVgamma_lin, initial norm =      28    328 0.12500E-01 0.14920E-11
(PID.TID 0000.0001)  S/R SEAICE_KRYLOV: Picard iterate / total =     28 /    328, Nb. of FGMRES iterations =      1
(PID.TID 0000.0001)  S/R SEAICE_KRYLOV: Picard iterate / total, KRYLOVgamma_lin, initial norm =      29    329 0.12500E-01 0.74599E-12
(PID.TID 0000.0001)  S/R SEAICE_KRYLOV: Picard iterate / total =     29 /    329, Nb. of FGMRES iterations =      1
(PID.TID 0000.0001)  S/R SEAICE_KRYLOV: Picard iterate / total, KRYLOVgamma_lin, initial norm =      30    330 0.12500E-01 0.37299E-12
(PID.TID 0000.0001)  S/R SEAICE_KRYLOV: Picard iterate / total =     30 /    330, Nb. of FGMRES iterations =      1
(PID.TID 0000.0001)  S/R SEAICE_KRYLOV: Picard iterate / total, KRYLOVgamma_lin, initial norm =      31    331 0.12500E-01 0.18650E-12
(PID.TID 0000.0001)  S/R SEAICE_KRYLOV: Picard iterate / total =     31 /    331, Nb. of FGMRES iterations =      1
(PID.TID 0000.0001)  S/R SEAICE_KRYLOV: Picard iterate / total, KRYLOVgamma_lin, final   norm =      32    332 0.12500E-01 0.93249E-13
(PID.TID 0000.0001)  // =======================================================
(PID.TID 0000.0001)  // Begin KRYLOV statistics
(PID.TID 0000.0001)  // =======================================================
(PID.TID 0000.0001)  %KRYLOV_MON: time step              =          4
(PID.TID 0000.0001)  %KRYLOV_MON: Nb. of time steps      =          1
(PID.TID 0000.0001)  %KRYLOV_MON: Nb. of Picard steps    =         32
(PID.TID 0000.0001)  %KRYLOV_MON: Nb. of Krylov steps    =         31
(PID.TID 0000.0001)  %KRYLOV_MON: Nb. of Picard failures =          0
(PID.TID 0000.0001)  %KRYLOV_MON: Nb. of Krylov failures =          0
(PID.TID 0000.0001)  // =======================================================
(PID.TID 0000.0001)  // End KRYLOV statistics
(PID.TID 0000.0001)  // =======================================================
(PID.TID 0000.0001)  S/R SEAICE_KRYLOV: Total number FGMRES iterations =     31 in timestep          4
(PID.TID 0000.0001) // =======================================================
(PID.TID 0000.0001) // Begin MONITOR dynamic field statistics
(PID.TID 0000.0001) // =======================================================
(PID.TID 0000.0001) %MON time_tsnumber                =                     4
(PID.TID 0000.0001) %MON time_secondsf                =   1.0000000000000E+01
(PID.TID 0000.0001) %MON dynstat_eta_max              =   0.0000000000000E+00
(PID.TID 0000.0001) %MON dynstat_eta_min              =   0.0000000000000E+00
(PID.TID 0000.0001) %MON dynstat_eta_mean             =   0.0000000000000E+00
(PID.TID 0000.0001) %MON dynstat_eta_sd               =   0.0000000000000E+00
(PID.TID 0000.0001) %MON dynstat_eta_del2             =   0.0000000000000E+00
(PID.TID 0000.0001) %MON dynstat_uvel_max             =   9.8437500000000E-03
(PID.TID 0000.0001) %MON dynstat_uvel_min             =  -9.8437500000000E-03
(PID.TID 0000.0001) %MON dynstat_uvel_mean            =   0.0000000000000E+00
(PID.TID 0000.0001) %MON dynstat_uvel_sd              =   5.7727978755972E-03
(PID.TID 0000.0001) %MON dynstat_uvel_del2            =   1.0089048364799E-20
(PID.TID 0000.0001) %MON dynstat_vvel_max             =   9.8437500000000E-03
(PID.TID 0000.0001) %MON dynstat_vvel_min             =  -9.8437500000000E-03
(PID.TID 0000.0001) %MON dynstat_vvel_mean            =   0.0000000000000E+00
(PID.TID 0000.0001) %MON dynstat_vvel_sd              =   5.7727978755972E-03
(PID.TID 0000.0001) %MON dynstat_vvel_del2            =   1.0089048364799E-20
(PID.TID 0000.0001) %MON dynstat_wvel_max             =   1.1914062500000E-05
(PID.TID 0000.0001) %MON dynstat_wvel_min             =  -1.1914062500000E-05
(PID.TID 0000.0001) %MON dynstat_wvel_mean            =   3.4694469519536E-25
(PID.TID 0000.0001) %MON dynstat_wvel_sd              =   1.7200872247780E-06
(PID.TID 0000.0001) %MON dynstat_wvel_del2            =   2.8187489626940E-08
(PID.TID 0000.0001) %MON dynstat_theta_max            =  -1.6200000000000E+00
(PID.TID 0000.0001) %MON dynstat_theta_min            =  -1.6200000000000E+00
(PID.TID 0000.0001) %MON dynstat_theta_mean           =  -1.6200000000000E+00
(PID.TID 0000.0001) %MON dynstat_theta_sd             =   0.0000000000000E+00
(PID.TID 0000.0001) %MON dynstat_theta_del2           =   0.0000000000000E+00
(PID.TID 0000.0001) %MON dynstat_salt_max             =   3.0000000000000E+01
(PID.TID 0000.0001) %MON dynstat_salt_min             =   3.0000000000000E+01
(PID.TID 0000.0001) %MON dynstat_salt_mean            =   3.0000000000000E+01
(PID.TID 0000.0001) %MON dynstat_salt_sd              =   0.0000000000000E+00
(PID.TID 0000.0001) %MON dynstat_salt_del2            =   0.0000000000000E+00
(PID.TID 0000.0001) %MON trAdv_CFL_u_max              =   3.0761718750000E-06
(PID.TID 0000.0001) %MON trAdv_CFL_v_max              =   3.0761718750000E-06
(PID.TID 0000.0001) %MON trAdv_CFL_w_max              =   2.9785156250000E-06
(PID.TID 0000.0001) %MON advcfl_uvel_max              =   3.0761718750000E-06
(PID.TID 0000.0001) %MON advcfl_vvel_max              =   3.0761718750000E-06
(PID.TID 0000.0001) %MON advcfl_wvel_max              =   5.9570312500000E-06
(PID.TID 0000.0001) %MON advcfl_W_hf_max              =   0.0000000000000E+00
(PID.TID 0000.0001) %MON pe_b_mean                    =   0.0000000000000E+00
(PID.TID 0000.0001) %MON ke_max                       =   9.0844726562500E-05
(PID.TID 0000.0001) %MON ke_mean                      =   3.2804489135742E-05
(PID.TID 0000.0001) %MON ke_vol                       =   2.6214400000000E+12
(PID.TID 0000.0001) %MON vort_r_min                   =  -7.8125000000000E-08
(PID.TID 0000.0001) %MON vort_r_max                   =   1.2304687500000E-06
(PID.TID 0000.0001) %MON vort_a_mean                  =   1.4856000000000E-04
(PID.TID 0000.0001) %MON vort_a_sd                    =   1.5312918562496E-06
(PID.TID 0000.0001) %MON vort_p_mean                  =   1.5552375000000E-04
(PID.TID 0000.0001) %MON vort_p_sd                    =   5.5921473110222E-05
(PID.TID 0000.0001) %MON surfExpan_theta_mean         =   0.0000000000000E+00
(PID.TID 0000.0001) %MON surfExpan_salt_mean          =   1.3877787807814E-23
(PID.TID 0000.0001) // =======================================================
(PID.TID 0000.0001) // End MONITOR dynamic field statistics
(PID.TID 0000.0001) // =======================================================
(PID.TID 0000.0001) // =======================================================
(PID.TID 0000.0001) // Begin MONITOR SEAICE statistics
(PID.TID 0000.0001) // =======================================================
(PID.TID 0000.0001) %MON seaice_tsnumber              =                     4
(PID.TID 0000.0001) %MON seaice_time_sec              =   1.0000000000000E+01
(PID.TID 0000.0001) %MON seaice_uice_max              =   6.9802437237733E-03
(PID.TID 0000.0001) %MON seaice_uice_min              =  -7.1421177550253E-03
(PID.TID 0000.0001) %MON seaice_uice_mean             =  -1.6557186427312E-07
(PID.TID 0000.0001) %MON seaice_uice_sd               =   3.0030751015240E-03
(PID.TID 0000.0001) %MON seaice_uice_del2             =   8.3222683696431E-07
(PID.TID 0000.0001) %MON seaice_vice_max              =   6.8109367820954E-03
(PID.TID 0000.0001) %MON seaice_vice_min              =  -6.9007032752121E-03
(PID.TID 0000.0001) %MON seaice_vice_mean             =   7.4784430056651E-07
(PID.TID 0000.0001) %MON seaice_vice_sd               =   2.9882872065222E-03
(PID.TID 0000.0001) %MON seaice_vice_del2             =   8.3127634332057E-07
(PID.TID 0000.0001) %MON seaice_area_max              =   1.0000000000000E+00
(PID.TID 0000.0001) %MON seaice_area_min              =   9.9999928730670E-01
(PID.TID 0000.0001) %MON seaice_area_mean             =   9.9999995750085E-01
(PID.TID 0000.0001) %MON seaice_area_sd               =   9.8026894207253E-08
(PID.TID 0000.0001) %MON seaice_area_del2             =   1.0864803027763E-09
(PID.TID 0000.0001) %MON seaice_heff_max              =   3.0999866187921E-01
(PID.TID 0000.0001) %MON seaice_heff_min              =   2.9006055437991E-01
(PID.TID 0000.0001) %MON seaice_heff_mean             =   3.0067126525963E-01
(PID.TID 0000.0001) %MON seaice_heff_sd               =   5.0069227393204E-03
(PID.TID 0000.0001) %MON seaice_heff_del2             =   1.2853747688554E-05
(PID.TID 0000.0001) %MON seaice_hsnow_max             =   0.0000000000000E+00
(PID.TID 0000.0001) %MON seaice_hsnow_min             =   0.0000000000000E+00
(PID.TID 0000.0001) %MON seaice_hsnow_mean            =   0.0000000000000E+00
(PID.TID 0000.0001) %MON seaice_hsnow_sd              =   0.0000000000000E+00
(PID.TID 0000.0001) %MON seaice_hsnow_del2            =   0.0000000000000E+00
(PID.TID 0000.0001) // =======================================================
(PID.TID 0000.0001) // End MONITOR SEAICE statistics
(PID.TID 0000.0001) // =======================================================
 Computing Diagnostic #    163  SIuice       Counter:       1   Parms: UU      M1      
           Vector  Mate for  SIuice       Diagnostic #    164  SIvice   exists 
 Computing Diagnostic #    164  SIvice       Counter:       1   Parms: VV      M1      
           Vector  Mate for  SIvice       Diagnostic #    163  SIuice   exists 
 Computing Diagnostic #    149  SIheff       Counter:       1   Parms: SM      M1      
 Computing Diagnostic #    146  SIarea       Counter:       1   Parms: SM      M1      
 Computing Diagnostic #    228  SIshear      Counter:       1   Parms: SM      M1      
 Computing Diagnostic #    233  SIcohes      Counter:       1   Parms: SM      M1      
 Computing Diagnostic #    221  SIsig1       Counter:       1   Parms: SM      M1      
 Computing Diagnostic #    222  SIsig2       Counter:       1   Parms: SM      M1      
 Computing Diagnostic #    231  SIdamage     Counter:       1   Parms: SM      M1      
 Computing Diagnostic #    165  SItaux       Counter:       1   Parms: UU      U1      
           Vector  Mate for  SItaux       Diagnostic #    166  SItauy   exists 
 Computing Diagnostic #    166  SItauy       Counter:       1   Parms: VV      U1      
           Vector  Mate for  SItauy       Diagnostic #    165  SItaux   exists 
 Computing Diagnostic #    133  EXFuwind     Counter:       1   Parms: UM      U1      
 Computing Diagnostic #    134  EXFvwind     Counter:       1   Parms: VM      U1      
(PID.TID 0000.0001)  S/R SEAICE_KRYLOV: Picard iterate / total, KRYLOVgamma_lin, initial norm =       1    401 0.10000E+00 0.11248E+00
(PID.TID 0000.0001)  S/R SEAICE_KRYLOV: Picard iterate / total =      1 /    401, Nb. of FGMRES iterations =      1
(PID.TID 0000.0001)  S/R SEAICE_KRYLOV: Picard iterate / total, KRYLOVgamma_lin, initial norm =       2    402 0.50000E-01 0.24203E-03
(PID.TID 0000.0001)  S/R SEAICE_KRYLOV: Picard iterate / total =      2 /    402, Nb. of FGMRES iterations =      1
(PID.TID 0000.0001)  S/R SEAICE_KRYLOV: Picard iterate / total, KRYLOVgamma_lin, initial norm =       3    403 0.50000E-01 0.35406E-04
(PID.TID 0000.0001)  S/R SEAICE_KRYLOV: Picard iterate / total =      3 /    403, Nb. of FGMRES iterations =      1
(PID.TID 0000.0001)  S/R SEAICE_KRYLOV: Picard iterate / total, KRYLOVgamma_lin, initial norm =       4    404 0.33333E-01 0.23315E-04
(PID.TID 0000.0001)  S/R SEAICE_KRYLOV: Picard iterate / total =      4 /    404, Nb. of FGMRES iterations =      1
(PID.TID 0000.0001)  S/R SEAICE_KRYLOV: Picard iterate / total, KRYLOVgamma_lin, initial norm =       5    405 0.33333E-01 0.11208E-04
(PID.TID 0000.0001)  S/R SEAICE_KRYLOV: Picard iterate / total =      5 /    405, Nb. of FGMRES iterations =      1
(PID.TID 0000.0001)  S/R SEAICE_KRYLOV: Picard iterate / total, KRYLOVgamma_lin, initial norm =       6    406 0.33333E-01 0.56389E-05
(PID.TID 0000.0001)  S/R SEAICE_KRYLOV: Picard iterate / total =      6 /    406, Nb. of FGMRES iterations =      1
(PID.TID 0000.0001)  S/R SEAICE_KRYLOV: Picard iterate / total, KRYLOVgamma_lin, initial norm =       7    407 0.33333E-01 0.28167E-05
(PID.TID 0000.0001)  S/R SEAICE_KRYLOV: Picard iterate / total =      7 /    407, Nb. of FGMRES iterations =      1
(PID.TID 0000.0001)  S/R SEAICE_KRYLOV: Picard iterate / total, KRYLOVgamma_lin, initial norm =       8    408 0.25000E-01 0.14086E-05
(PID.TID 0000.0001)  S/R SEAICE_KRYLOV: Picard iterate / total =      8 /    408, Nb. of FGMRES iterations =      1
(PID.TID 0000.0001)  S/R SEAICE_KRYLOV: Picard iterate / total, KRYLOVgamma_lin, initial norm =       9    409 0.20000E-01 0.70427E-06
(PID.TID 0000.0001)  S/R SEAICE_KRYLOV: Picard iterate / total =      9 /    409, Nb. of FGMRES iterations =      1
(PID.TID 0000.0001)  S/R SEAICE_KRYLOV: Picard iterate / total, KRYLOVgamma_lin, initial norm =      10    410 0.12500E-01 0.35214E-06
(PID.TID 0000.0001)  S/R SEAICE_KRYLOV: Picard iterate / total =     10 /    410, Nb. of FGMRES iterations =      1
(PID.TID 0000.0001)  S/R SEAICE_KRYLOV: Picard iterate / total, KRYLOVgamma_lin, initial norm =      11    411 0.12500E-01 0.17607E-06
(PID.TID 0000.0001)  S/R SEAICE_KRYLOV: Picard iterate / total =     11 /    411, Nb. of FGMRES iterations =      1
(PID.TID 0000.0001)  S/R SEAICE_KRYLOV: Picard iterate / total, KRYLOVgamma_lin, initial norm =      12    412 0.12500E-01 0.88034E-07
(PID.TID 0000.0001)  S/R SEAICE_KRYLOV: Picard iterate / total =     12 /    412, Nb. of FGMRES iterations =      1
(PID.TID 0000.0001)  S/R SEAICE_KRYLOV: Picard iterate / total, KRYLOVgamma_lin, initial norm =      13    413 0.12500E-01 0.44017E-07
(PID.TID 0000.0001)  S/R SEAICE_KRYLOV: Picard iterate / total =     13 /    413, Nb. of FGMRES iterations =      1
(PID.TID 0000.0001)  S/R SEAICE_KRYLOV: Picard iterate / total, KRYLOVgamma_lin, initial norm =      14    414 0.12500E-01 0.22009E-07
(PID.TID 0000.0001)  S/R SEAICE_KRYLOV: Picard iterate / total =     14 /    414, Nb. of FGMRES iterations =      1
(PID.TID 0000.0001)  S/R SEAICE_KRYLOV: Picard iterate / total, KRYLOVgamma_lin, initial norm =      15    415 0.12500E-01 0.11004E-07
(PID.TID 0000.0001)  S/R SEAICE_KRYLOV: Picard iterate / total =     15 /    415, Nb. of FGMRES iterations =      1
(PID.TID 0000.0001)  S/R SEAICE_KRYLOV: Picard iterate / total, KRYLOVgamma_lin, initial norm =      16    416 0.12500E-01 0.55021E-08
(PID.TID 0000.0001)  S/R SEAICE_KRYLOV: Picard iterate / total =     16 /    416, Nb. of FGMRES iterations =      1
(PID.TID 0000.0001)  S/R SEAICE_KRYLOV: Picard iterate / total, KRYLOVgamma_lin, initial norm =      17    417 0.12500E-01 0.27511E-08
(PID.TID 0000.0001)  S/R SEAICE_KRYLOV: Picard iterate / total =     17 /    417, Nb. of FGMRES iterations =      1
(PID.TID 0000.0001)  S/R SEAICE_KRYLOV: Picard iterate / total, KRYLOVgamma_lin, initial norm =      18    418 0.12500E-01 0.13755E-08
(PID.TID 0000.0001)  S/R SEAICE_KRYLOV: Picard iterate / total =     18 /    418, Nb. of FGMRES iterations =      1
(PID.TID 0000.0001)  S/R SEAICE_KRYLOV: Picard iterate / total, KRYLOVgamma_lin, initial norm =      19    419 0.12500E-01 0.68777E-09
(PID.TID 0000.0001)  S/R SEAICE_KRYLOV: Picard iterate / total =     19 /    419, Nb. of FGMRES iterations =      1
(PID.TID 0000.0001)  S/R SEAICE_KRYLOV: Picard iterate / total, KRYLOVgamma_lin, initial norm =      20    420 0.12500E-01 0.34388E-09
(PID.TID 0000.0001)  S/R SEAICE_KRYLOV: Picard iterate / total =     20 /    420, Nb. of FGMRES iterations =      1
(PID.TID 0000.0001)  S/R SEAICE_KRYLOV: Picard iterate / total, KRYLOVgamma_lin, initial norm =      21    421 0.12500E-01 0.17194E-09
(PID.TID 0000.0001)  S/R SEAICE_KRYLOV: Picard iterate / total =     21 /    421, Nb. of FGMRES iterations =      1
(PID.TID 0000.0001)  S/R SEAICE_KRYLOV: Picard iterate / total, KRYLOVgamma_lin, initial norm =      22    422 0.12500E-01 0.85971E-10
(PID.TID 0000.0001)  S/R SEAICE_KRYLOV: Picard iterate / total =     22 /    422, Nb. of FGMRES iterations =      1
(PID.TID 0000.0001)  S/R SEAICE_KRYLOV: Picard iterate / total, KRYLOVgamma_lin, initial norm =      23    423 0.12500E-01 0.42986E-10
(PID.TID 0000.0001)  S/R SEAICE_KRYLOV: Picard iterate / total =     23 /    423, Nb. of FGMRES iterations =      1
(PID.TID 0000.0001)  S/R SEAICE_KRYLOV: Picard iterate / total, KRYLOVgamma_lin, initial norm =      24    424 0.12500E-01 0.21493E-10
(PID.TID 0000.0001)  S/R SEAICE_KRYLOV: Picard iterate / total =     24 /    424, Nb. of FGMRES iterations =      1
(PID.TID 0000.0001)  S/R SEAICE_KRYLOV: Picard iterate / total, KRYLOVgamma_lin, initial norm =      25    425 0.12500E-01 0.10746E-10
(PID.TID 0000.0001)  S/R SEAICE_KRYLOV: Picard iterate / total =     25 /    425, Nb. of FGMRES iterations =      1
(PID.TID 0000.0001)  S/R SEAICE_KRYLOV: Picard iterate / total, KRYLOVgamma_lin, initial norm =      26    426 0.12500E-01 0.53732E-11
(PID.TID 0000.0001)  S/R SEAICE_KRYLOV: Picard iterate / total =     26 /    426, Nb. of FGMRES iterations =      1
(PID.TID 0000.0001)  S/R SEAICE_KRYLOV: Picard iterate / total, KRYLOVgamma_lin, initial norm =      27    427 0.12500E-01 0.26866E-11
(PID.TID 0000.0001)  S/R SEAICE_KRYLOV: Picard iterate / total =     27 /    427, Nb. of FGMRES iterations =      1
(PID.TID 0000.0001)  S/R SEAICE_KRYLOV: Picard iterate / total, KRYLOVgamma_lin, initial norm =      28    428 0.12500E-01 0.13433E-11
(PID.TID 0000.0001)  S/R SEAICE_KRYLOV: Picard iterate / total =     28 /    428, Nb. of FGMRES iterations =      1
(PID.TID 0000.0001)  S/R SEAICE_KRYLOV: Picard iterate / total, KRYLOVgamma_lin, initial norm =      29    429 0.12500E-01 0.67165E-12
(PID.TID 0000.0001)  S/R SEAICE_KRYLOV: Picard iterate / total =     29 /    429, Nb. of FGMRES iterations =      1
(PID.TID 0000.0001)  S/R SEAICE_KRYLOV: Picard iterate / total, KRYLOVgamma_lin, initial norm =      30    430 0.12500E-01 0.33582E-12
(PID.TID 0000.0001)  S/R SEAICE_KRYLOV: Picard iterate / total =     30 /    430, Nb. of FGMRES iterations =      1
(PID.TID 0000.0001)  S/R SEAICE_KRYLOV: Picard iterate / total, KRYLOVgamma_lin, initial norm =      31    431 0.12500E-01 0.16791E-12
(PID.TID 0000.0001)  S/R SEAICE_KRYLOV: Picard iterate / total =     31 /    431, Nb. of FGMRES iterations =      1
(PID.TID 0000.0001)  S/R SEAICE_KRYLOV: Picard iterate / total, KRYLOVgamma_lin, final   norm =      32    432 0.12500E-01 0.83957E-13
(PID.TID 0000.0001)  // =======================================================
(PID.TID 0000.0001)  // Begin KRYLOV statistics
(PID.TID 0000.0001)  // =======================================================
(PID.TID 0000.0001)  %KRYLOV_MON: time step              =          5
(PID.TID 0000.0001)  %KRYLOV_MON: Nb. of time steps      =          1
(PID.TID 0000.0001)  %KRYLOV_MON: Nb. of Picard steps    =         32
(PID.TID 0000.0001)  %KRYLOV_MON: Nb. of Krylov steps    =         31
(PID.TID 0000.0001)  %KRYLOV_MON: Nb. of Picard failures =          0
(PID.TID 0000.0001)  %KRYLOV_MON: Nb. of Krylov failures =          0
(PID.TID 0000.0001)  // =======================================================
(PID.TID 0000.0001)  // End KRYLOV statistics
(PID.TID 0000.0001)  // =======================================================
(PID.TID 0000.0001)  S/R SEAICE_KRYLOV: Total number FGMRES iterations =     31 in timestep          5
(PID.TID 0000.0001) // =======================================================
(PID.TID 0000.0001) // Begin MONITOR dynamic field statistics
(PID.TID 0000.0001) // =======================================================
(PID.TID 0000.0001) %MON time_tsnumber                =                     5
(PID.TID 0000.0001) %MON time_secondsf                =   1.2500000000000E+01
(PID.TID 0000.0001) %MON dynstat_eta_max              =   0.0000000000000E+00
(PID.TID 0000.0001) %MON dynstat_eta_min              =   0.0000000000000E+00
(PID.TID 0000.0001) %MON dynstat_eta_mean             =   0.0000000000000E+00
(PID.TID 0000.0001) %MON dynstat_eta_sd               =   0.0000000000000E+00
(PID.TID 0000.0001) %MON dynstat_eta_del2             =   0.0000000000000E+00
(PID.TID 0000.0001) %MON dynstat_uvel_max             =   9.8437500000000E-03
(PID.TID 0000.0001) %MON dynstat_uvel_min             =  -9.8437500000000E-03
(PID.TID 0000.0001) %MON dynstat_uvel_mean            =   0.0000000000000E+00
(PID.TID 0000.0001) %MON dynstat_uvel_sd              =   5.7727978755972E-03
(PID.TID 0000.0001) %MON dynstat_uvel_del2            =   1.0089048364799E-20
(PID.TID 0000.0001) %MON dynstat_vvel_max             =   9.8437500000000E-03
(PID.TID 0000.0001) %MON dynstat_vvel_min             =  -9.8437500000000E-03
(PID.TID 0000.0001) %MON dynstat_vvel_mean            =   0.0000000000000E+00
(PID.TID 0000.0001) %MON dynstat_vvel_sd              =   5.7727978755972E-03
(PID.TID 0000.0001) %MON dynstat_vvel_del2            =   1.0089048364799E-20
(PID.TID 0000.0001) %MON dynstat_wvel_max             =   1.1914062500000E-05
(PID.TID 0000.0001) %MON dynstat_wvel_min             =  -1.1914062500000E-05
(PID.TID 0000.0001) %MON dynstat_wvel_mean            =   3.4694469519536E-25
(PID.TID 0000.0001) %MON dynstat_wvel_sd              =   1.7200872247780E-06
(PID.TID 0000.0001) %MON dynstat_wvel_del2            =   2.8187489626940E-08
(PID.TID 0000.0001) %MON dynstat_theta_max            =  -1.6200000000000E+00
(PID.TID 0000.0001) %MON dynstat_theta_min            =  -1.6200000000000E+00
(PID.TID 0000.0001) %MON dynstat_theta_mean           =  -1.6200000000000E+00
(PID.TID 0000.0001) %MON dynstat_theta_sd             =   0.0000000000000E+00
(PID.TID 0000.0001) %MON dynstat_theta_del2           =   0.0000000000000E+00
(PID.TID 0000.0001) %MON dynstat_salt_max             =   3.0000000000000E+01
(PID.TID 0000.0001) %MON dynstat_salt_min             =   3.0000000000000E+01
(PID.TID 0000.0001) %MON dynstat_salt_mean            =   3.0000000000000E+01
(PID.TID 0000.0001) %MON dynstat_salt_sd              =   0.0000000000000E+00
(PID.TID 0000.0001) %MON dynstat_salt_del2            =   0.0000000000000E+00
(PID.TID 0000.0001) %MON trAdv_CFL_u_max              =   3.0761718750000E-06
(PID.TID 0000.0001) %MON trAdv_CFL_v_max              =   3.0761718750000E-06
(PID.TID 0000.0001) %MON trAdv_CFL_w_max              =   2.9785156250000E-06
(PID.TID 0000.0001) %MON advcfl_uvel_max              =   3.0761718750000E-06
(PID.TID 0000.0001) %MON advcfl_vvel_max              =   3.0761718750000E-06
(PID.TID 0000.0001) %MON advcfl_wvel_max              =   5.9570312500000E-06
(PID.TID 0000.0001) %MON advcfl_W_hf_max              =   0.0000000000000E+00
(PID.TID 0000.0001) %MON pe_b_mean                    =   0.0000000000000E+00
(PID.TID 0000.0001) %MON ke_max                       =   9.0844726562500E-05
(PID.TID 0000.0001) %MON ke_mean                      =   3.2804489135742E-05
(PID.TID 0000.0001) %MON ke_vol                       =   2.6214400000000E+12
(PID.TID 0000.0001) %MON vort_r_min                   =  -7.8125000000000E-08
(PID.TID 0000.0001) %MON vort_r_max                   =   1.2304687500000E-06
(PID.TID 0000.0001) %MON vort_a_mean                  =   1.4856000000000E-04
(PID.TID 0000.0001) %MON vort_a_sd                    =   1.5312918562496E-06
(PID.TID 0000.0001) %MON vort_p_mean                  =   1.5552375000000E-04
(PID.TID 0000.0001) %MON vort_p_sd                    =   5.5921473110222E-05
(PID.TID 0000.0001) %MON surfExpan_theta_mean         =   0.0000000000000E+00
(PID.TID 0000.0001) %MON surfExpan_salt_mean          =   1.3877787807814E-23
(PID.TID 0000.0001) // =======================================================
(PID.TID 0000.0001) // End MONITOR dynamic field statistics
(PID.TID 0000.0001) // =======================================================
(PID.TID 0000.0001) // =======================================================
(PID.TID 0000.0001) // Begin MONITOR SEAICE statistics
(PID.TID 0000.0001) // =======================================================
(PID.TID 0000.0001) %MON seaice_tsnumber              =                     5
(PID.TID 0000.0001) %MON seaice_time_sec              =   1.2500000000000E+01
(PID.TID 0000.0001) %MON seaice_uice_max              =   8.7075083240042E-03
(PID.TID 0000.0001) %MON seaice_uice_min              =  -8.9051538146450E-03
(PID.TID 0000.0001) %MON seaice_uice_mean             =  -2.0921901850850E-07
(PID.TID 0000.0001) %MON seaice_uice_sd               =   3.7466383147285E-03
(PID.TID 0000.0001) %MON seaice_uice_del2             =   1.0919375793403E-06
(PID.TID 0000.0001) %MON seaice_vice_max              =   8.4975996385836E-03
(PID.TID 0000.0001) %MON seaice_vice_min              =  -8.6077795503596E-03
(PID.TID 0000.0001) %MON seaice_vice_mean             =   9.3256215516628E-07
(PID.TID 0000.0001) %MON seaice_vice_sd               =   3.7282502067413E-03
(PID.TID 0000.0001) %MON seaice_vice_del2             =   1.0921789577165E-06
(PID.TID 0000.0001) %MON seaice_area_max              =   1.0000000000000E+00
(PID.TID 0000.0001) %MON seaice_area_min              =   9.9999895191915E-01
(PID.TID 0000.0001) %MON seaice_area_mean             =   9.9999993645624E-01
(PID.TID 0000.0001) %MON seaice_area_sd               =   1.4392298966485E-07
(PID.TID 0000.0001) %MON seaice_area_del2             =   1.5308649841478E-09
(PID.TID 0000.0001) %MON seaice_heff_max              =   3.0999865630523E-01
(PID.TID 0000.0001) %MON seaice_heff_min              =   2.9006054858748E-01
(PID.TID 0000.0001) %MON seaice_heff_mean             =   3.0067126525963E-01
(PID.TID 0000.0001) %MON seaice_heff_sd               =   5.0069228808438E-03
(PID.TID 0000.0001) %MON seaice_heff_del2             =   1.2853747744726E-05
(PID.TID 0000.0001) %MON seaice_hsnow_max             =   0.0000000000000E+00
(PID.TID 0000.0001) %MON seaice_hsnow_min             =   0.0000000000000E+00
(PID.TID 0000.0001) %MON seaice_hsnow_mean            =   0.0000000000000E+00
(PID.TID 0000.0001) %MON seaice_hsnow_sd              =   0.0000000000000E+00
(PID.TID 0000.0001) %MON seaice_hsnow_del2            =   0.0000000000000E+00
(PID.TID 0000.0001) // =======================================================
(PID.TID 0000.0001) // End MONITOR SEAICE statistics
(PID.TID 0000.0001) // =======================================================
 Computing Diagnostic #    163  SIuice       Counter:       1   Parms: UU      M1      
           Vector  Mate for  SIuice       Diagnostic #    164  SIvice   exists 
 Computing Diagnostic #    164  SIvice       Counter:       1   Parms: VV      M1      
           Vector  Mate for  SIvice       Diagnostic #    163  SIuice   exists 
 Computing Diagnostic #    149  SIheff       Counter:       1   Parms: SM      M1      
 Computing Diagnostic #    146  SIarea       Counter:       1   Parms: SM      M1      
 Computing Diagnostic #    228  SIshear      Counter:       1   Parms: SM      M1      
 Computing Diagnostic #    233  SIcohes      Counter:       1   Parms: SM      M1      
 Computing Diagnostic #    221  SIsig1       Counter:       1   Parms: SM      M1      
 Computing Diagnostic #    222  SIsig2       Counter:       1   Parms: SM      M1      
 Computing Diagnostic #    231  SIdamage     Counter:       1   Parms: SM      M1      
 Computing Diagnostic #    165  SItaux       Counter:       1   Parms: UU      U1      
           Vector  Mate for  SItaux       Diagnostic #    166  SItauy   exists 
 Computing Diagnostic #    166  SItauy       Counter:       1   Parms: VV      U1      
           Vector  Mate for  SItauy       Diagnostic #    165  SItaux   exists 
 Computing Diagnostic #    133  EXFuwind     Counter:       1   Parms: UM      U1      
 Computing Diagnostic #    134  EXFvwind     Counter:       1   Parms: VM      U1      
(PID.TID 0000.0001)  S/R SEAICE_KRYLOV: Picard iterate / total, KRYLOVgamma_lin, initial norm =       1    501 0.10000E+00 0.11202E+00
(PID.TID 0000.0001)  S/R SEAICE_KRYLOV: Picard iterate / total =      1 /    501, Nb. of FGMRES iterations =      1
(PID.TID 0000.0001)  S/R SEAICE_KRYLOV: Picard iterate / total, KRYLOVgamma_lin, initial norm =       2    502 0.50000E-01 0.25191E-03
(PID.TID 0000.0001)  S/R SEAICE_KRYLOV: Picard iterate / total =      2 /    502, Nb. of FGMRES iterations =      1
(PID.TID 0000.0001)  S/R SEAICE_KRYLOV: Picard iterate / total, KRYLOVgamma_lin, initial norm =       3    503 0.50000E-01 0.34939E-04
(PID.TID 0000.0001)  S/R SEAICE_KRYLOV: Picard iterate / total =      3 /    503, Nb. of FGMRES iterations =      1
(PID.TID 0000.0001)  S/R SEAICE_KRYLOV: Picard iterate / total, KRYLOVgamma_lin, initial norm =       4    504 0.33333E-01 0.23457E-04
(PID.TID 0000.0001)  S/R SEAICE_KRYLOV: Picard iterate / total =      4 /    504, Nb. of FGMRES iterations =      1
(PID.TID 0000.0001)  S/R SEAICE_KRYLOV: Picard iterate / total, KRYLOVgamma_lin, initial norm =       5    505 0.33333E-01 0.11238E-04
(PID.TID 0000.0001)  S/R SEAICE_KRYLOV: Picard iterate / total =      5 /    505, Nb. of FGMRES iterations =      1
(PID.TID 0000.0001)  S/R SEAICE_KRYLOV: Picard iterate / total, KRYLOVgamma_lin, initial norm =       6    506 0.33333E-01 0.56575E-05
(PID.TID 0000.0001)  S/R SEAICE_KRYLOV: Picard iterate / total =      6 /    506, Nb. of FGMRES iterations =      1
(PID.TID 0000.0001)  S/R SEAICE_KRYLOV: Picard iterate / total, KRYLOVgamma_lin, initial norm =       7    507 0.33333E-01 0.28257E-05
(PID.TID 0000.0001)  S/R SEAICE_KRYLOV: Picard iterate / total =      7 /    507, Nb. of FGMRES iterations =      1
(PID.TID 0000.0001)  S/R SEAICE_KRYLOV: Picard iterate / total, KRYLOVgamma_lin, initial norm =       8    508 0.25000E-01 0.14131E-05
(PID.TID 0000.0001)  S/R SEAICE_KRYLOV: Picard iterate / total =      8 /    508, Nb. of FGMRES iterations =      1
(PID.TID 0000.0001)  S/R SEAICE_KRYLOV: Picard iterate / total, KRYLOVgamma_lin, initial norm =       9    509 0.20000E-01 0.70652E-06
(PID.TID 0000.0001)  S/R SEAICE_KRYLOV: Picard iterate / total =      9 /    509, Nb. of FGMRES iterations =      1
(PID.TID 0000.0001)  S/R SEAICE_KRYLOV: Picard iterate / total, KRYLOVgamma_lin, initial norm =      10    510 0.12500E-01 0.35326E-06
(PID.TID 0000.0001)  S/R SEAICE_KRYLOV: Picard iterate / total =     10 /    510, Nb. of FGMRES iterations =      1
(PID.TID 0000.0001)  S/R SEAICE_KRYLOV: Picard iterate / total, KRYLOVgamma_lin, initial norm =      11    511 0.12500E-01 0.17663E-06
(PID.TID 0000.0001)  S/R SEAICE_KRYLOV: Picard iterate / total =     11 /    511, Nb. of FGMRES iterations =      1
(PID.TID 0000.0001)  S/R SEAICE_KRYLOV: Picard iterate / total, KRYLOVgamma_lin, initial norm =      12    512 0.12500E-01 0.88315E-07
(PID.TID 0000.0001)  S/R SEAICE_KRYLOV: Picard iterate / total =     12 /    512, Nb. of FGMRES iterations =      1
(PID.TID 0000.0001)  S/R SEAICE_KRYLOV: Picard iterate / total, KRYLOVgamma_lin, initial norm =      13    513 0.12500E-01 0.44158E-07
(PID.TID 0000.0001)  S/R SEAICE_KRYLOV: Picard iterate / total =     13 /    513, Nb. of FGMRES iterations =      1
(PID.TID 0000.0001)  S/R SEAICE_KRYLOV: Picard iterate / total, KRYLOVgamma_lin, initial norm =      14    514 0.12500E-01 0.22079E-07
(PID.TID 0000.0001)  S/R SEAICE_KRYLOV: Picard iterate / total =     14 /    514, Nb. of FGMRES iterations =      1
(PID.TID 0000.0001)  S/R SEAICE_KRYLOV: Picard iterate / total, KRYLOVgamma_lin, initial norm =      15    515 0.12500E-01 0.11039E-07
(PID.TID 0000.0001)  S/R SEAICE_KRYLOV: Picard iterate / total =     15 /    515, Nb. of FGMRES iterations =      1
(PID.TID 0000.0001)  S/R SEAICE_KRYLOV: Picard iterate / total, KRYLOVgamma_lin, initial norm =      16    516 0.12500E-01 0.55197E-08
(PID.TID 0000.0001)  S/R SEAICE_KRYLOV: Picard iterate / total =     16 /    516, Nb. of FGMRES iterations =      1
(PID.TID 0000.0001)  S/R SEAICE_KRYLOV: Picard iterate / total, KRYLOVgamma_lin, initial norm =      17    517 0.12500E-01 0.27599E-08
(PID.TID 0000.0001)  S/R SEAICE_KRYLOV: Picard iterate / total =     17 /    517, Nb. of FGMRES iterations =      1
(PID.TID 0000.0001)  S/R SEAICE_KRYLOV: Picard iterate / total, KRYLOVgamma_lin, initial norm =      18    518 0.12500E-01 0.13799E-08
(PID.TID 0000.0001)  S/R SEAICE_KRYLOV: Picard iterate / total =     18 /    518, Nb. of FGMRES iterations =      1
(PID.TID 0000.0001)  S/R SEAICE_KRYLOV: Picard iterate / total, KRYLOVgamma_lin, initial norm =      19    519 0.12500E-01 0.68996E-09
(PID.TID 0000.0001)  S/R SEAICE_KRYLOV: Picard iterate / total =     19 /    519, Nb. of FGMRES iterations =      1
(PID.TID 0000.0001)  S/R SEAICE_KRYLOV: Picard iterate / total, KRYLOVgamma_lin, initial norm =      20    520 0.12500E-01 0.34498E-09
(PID.TID 0000.0001)  S/R SEAICE_KRYLOV: Picard iterate / total =     20 /    520, Nb. of FGMRES iterations =      1
(PID.TID 0000.0001)  S/R SEAICE_KRYLOV: Picard iterate / total, KRYLOVgamma_lin, initial norm =      21    521 0.12500E-01 0.17249E-09
(PID.TID 0000.0001)  S/R SEAICE_KRYLOV: Picard iterate / total =     21 /    521, Nb. of FGMRES iterations =      1
(PID.TID 0000.0001)  S/R SEAICE_KRYLOV: Picard iterate / total, KRYLOVgamma_lin, initial norm =      22    522 0.12500E-01 0.86246E-10
(PID.TID 0000.0001)  S/R SEAICE_KRYLOV: Picard iterate / total =     22 /    522, Nb. of FGMRES iterations =      1
(PID.TID 0000.0001)  S/R SEAICE_KRYLOV: Picard iterate / total, KRYLOVgamma_lin, initial norm =      23    523 0.12500E-01 0.43123E-10
(PID.TID 0000.0001)  S/R SEAICE_KRYLOV: Picard iterate / total =     23 /    523, Nb. of FGMRES iterations =      1
(PID.TID 0000.0001)  S/R SEAICE_KRYLOV: Picard iterate / total, KRYLOVgamma_lin, initial norm =      24    524 0.12500E-01 0.21561E-10
(PID.TID 0000.0001)  S/R SEAICE_KRYLOV: Picard iterate / total =     24 /    524, Nb. of FGMRES iterations =      1
(PID.TID 0000.0001)  S/R SEAICE_KRYLOV: Picard iterate / total, KRYLOVgamma_lin, initial norm =      25    525 0.12500E-01 0.10781E-10
(PID.TID 0000.0001)  S/R SEAICE_KRYLOV: Picard iterate / total =     25 /    525, Nb. of FGMRES iterations =      1
(PID.TID 0000.0001)  S/R SEAICE_KRYLOV: Picard iterate / total, KRYLOVgamma_lin, initial norm =      26    526 0.12500E-01 0.53903E-11
(PID.TID 0000.0001)  S/R SEAICE_KRYLOV: Picard iterate / total =     26 /    526, Nb. of FGMRES iterations =      1
(PID.TID 0000.0001)  S/R SEAICE_KRYLOV: Picard iterate / total, KRYLOVgamma_lin, initial norm =      27    527 0.12500E-01 0.26952E-11
(PID.TID 0000.0001)  S/R SEAICE_KRYLOV: Picard iterate / total =     27 /    527, Nb. of FGMRES iterations =      1
(PID.TID 0000.0001)  S/R SEAICE_KRYLOV: Picard iterate / total, KRYLOVgamma_lin, initial norm =      28    528 0.12500E-01 0.13476E-11
(PID.TID 0000.0001)  S/R SEAICE_KRYLOV: Picard iterate / total =     28 /    528, Nb. of FGMRES iterations =      1
(PID.TID 0000.0001)  S/R SEAICE_KRYLOV: Picard iterate / total, KRYLOVgamma_lin, initial norm =      29    529 0.12500E-01 0.67379E-12
(PID.TID 0000.0001)  S/R SEAICE_KRYLOV: Picard iterate / total =     29 /    529, Nb. of FGMRES iterations =      1
(PID.TID 0000.0001)  S/R SEAICE_KRYLOV: Picard iterate / total, KRYLOVgamma_lin, initial norm =      30    530 0.12500E-01 0.33690E-12
(PID.TID 0000.0001)  S/R SEAICE_KRYLOV: Picard iterate / total =     30 /    530, Nb. of FGMRES iterations =      1
(PID.TID 0000.0001)  S/R SEAICE_KRYLOV: Picard iterate / total, KRYLOVgamma_lin, initial norm =      31    531 0.12500E-01 0.16845E-12
(PID.TID 0000.0001)  S/R SEAICE_KRYLOV: Picard iterate / total =     31 /    531, Nb. of FGMRES iterations =      1
(PID.TID 0000.0001)  S/R SEAICE_KRYLOV: Picard iterate / total, KRYLOVgamma_lin, final   norm =      32    532 0.12500E-01 0.84224E-13
(PID.TID 0000.0001)  // =======================================================
(PID.TID 0000.0001)  // Begin KRYLOV statistics
(PID.TID 0000.0001)  // =======================================================
(PID.TID 0000.0001)  %KRYLOV_MON: time step              =          6
(PID.TID 0000.0001)  %KRYLOV_MON: Nb. of time steps      =          1
(PID.TID 0000.0001)  %KRYLOV_MON: Nb. of Picard steps    =         32
(PID.TID 0000.0001)  %KRYLOV_MON: Nb. of Krylov steps    =         31
(PID.TID 0000.0001)  %KRYLOV_MON: Nb. of Picard failures =          0
(PID.TID 0000.0001)  %KRYLOV_MON: Nb. of Krylov failures =          0
(PID.TID 0000.0001)  // =======================================================
(PID.TID 0000.0001)  // End KRYLOV statistics
(PID.TID 0000.0001)  // =======================================================
(PID.TID 0000.0001)  S/R SEAICE_KRYLOV: Total number FGMRES iterations =     31 in timestep          6
(PID.TID 0000.0001) // =======================================================
(PID.TID 0000.0001) // Begin MONITOR dynamic field statistics
(PID.TID 0000.0001) // =======================================================
(PID.TID 0000.0001) %MON time_tsnumber                =                     6
(PID.TID 0000.0001) %MON time_secondsf                =   1.5000000000000E+01
(PID.TID 0000.0001) %MON dynstat_eta_max              =   0.0000000000000E+00
(PID.TID 0000.0001) %MON dynstat_eta_min              =   0.0000000000000E+00
(PID.TID 0000.0001) %MON dynstat_eta_mean             =   0.0000000000000E+00
(PID.TID 0000.0001) %MON dynstat_eta_sd               =   0.0000000000000E+00
(PID.TID 0000.0001) %MON dynstat_eta_del2             =   0.0000000000000E+00
(PID.TID 0000.0001) %MON dynstat_uvel_max             =   9.8437500000000E-03
(PID.TID 0000.0001) %MON dynstat_uvel_min             =  -9.8437500000000E-03
(PID.TID 0000.0001) %MON dynstat_uvel_mean            =   0.0000000000000E+00
(PID.TID 0000.0001) %MON dynstat_uvel_sd              =   5.7727978755972E-03
(PID.TID 0000.0001) %MON dynstat_uvel_del2            =   1.0089048364799E-20
(PID.TID 0000.0001) %MON dynstat_vvel_max             =   9.8437500000000E-03
(PID.TID 0000.0001) %MON dynstat_vvel_min             =  -9.8437500000000E-03
(PID.TID 0000.0001) %MON dynstat_vvel_mean            =   0.0000000000000E+00
(PID.TID 0000.0001) %MON dynstat_vvel_sd              =   5.7727978755972E-03
(PID.TID 0000.0001) %MON dynstat_vvel_del2            =   1.0089048364799E-20
(PID.TID 0000.0001) %MON dynstat_wvel_max             =   1.1914062500000E-05
(PID.TID 0000.0001) %MON dynstat_wvel_min             =  -1.1914062500000E-05
(PID.TID 0000.0001) %MON dynstat_wvel_mean            =   3.4694469519536E-25
(PID.TID 0000.0001) %MON dynstat_wvel_sd              =   1.7200872247780E-06
(PID.TID 0000.0001) %MON dynstat_wvel_del2            =   2.8187489626940E-08
(PID.TID 0000.0001) %MON dynstat_theta_max            =  -1.6200000000000E+00
(PID.TID 0000.0001) %MON dynstat_theta_min            =  -1.6200000000000E+00
(PID.TID 0000.0001) %MON dynstat_theta_mean           =  -1.6200000000000E+00
(PID.TID 0000.0001) %MON dynstat_theta_sd             =   0.0000000000000E+00
(PID.TID 0000.0001) %MON dynstat_theta_del2           =   0.0000000000000E+00
(PID.TID 0000.0001) %MON dynstat_salt_max             =   3.0000000000000E+01
(PID.TID 0000.0001) %MON dynstat_salt_min             =   3.0000000000000E+01
(PID.TID 0000.0001) %MON dynstat_salt_mean            =   3.0000000000000E+01
(PID.TID 0000.0001) %MON dynstat_salt_sd              =   0.0000000000000E+00
(PID.TID 0000.0001) %MON dynstat_salt_del2            =   0.0000000000000E+00
(PID.TID 0000.0001) %MON trAdv_CFL_u_max              =   3.0761718750000E-06
(PID.TID 0000.0001) %MON trAdv_CFL_v_max              =   3.0761718750000E-06
(PID.TID 0000.0001) %MON trAdv_CFL_w_max              =   2.9785156250000E-06
(PID.TID 0000.0001) %MON advcfl_uvel_max              =   3.0761718750000E-06
(PID.TID 0000.0001) %MON advcfl_vvel_max              =   3.0761718750000E-06
(PID.TID 0000.0001) %MON advcfl_wvel_max              =   5.9570312500000E-06
(PID.TID 0000.0001) %MON advcfl_W_hf_max              =   0.0000000000000E+00
(PID.TID 0000.0001) %MON pe_b_mean                    =   0.0000000000000E+00
(PID.TID 0000.0001) %MON ke_max                       =   9.0844726562500E-05
(PID.TID 0000.0001) %MON ke_mean                      =   3.2804489135742E-05
(PID.TID 0000.0001) %MON ke_vol                       =   2.6214400000000E+12
(PID.TID 0000.0001) %MON vort_r_min                   =  -7.8125000000000E-08
(PID.TID 0000.0001) %MON vort_r_max                   =   1.2304687500000E-06
(PID.TID 0000.0001) %MON vort_a_mean                  =   1.4856000000000E-04
(PID.TID 0000.0001) %MON vort_a_sd                    =   1.5312918562496E-06
(PID.TID 0000.0001) %MON vort_p_mean                  =   1.5552375000000E-04
(PID.TID 0000.0001) %MON vort_p_sd                    =   5.5921473110222E-05
(PID.TID 0000.0001) %MON surfExpan_theta_mean         =   0.0000000000000E+00
(PID.TID 0000.0001) %MON surfExpan_salt_mean          =   1.3877787807814E-23
(PID.TID 0000.0001) // =======================================================
(PID.TID 0000.0001) // End MONITOR dynamic field statistics
(PID.TID 0000.0001) // =======================================================
(PID.TID 0000.0001) // =======================================================
(PID.TID 0000.0001) // Begin MONITOR SEAICE statistics
(PID.TID 0000.0001) // =======================================================
(PID.TID 0000.0001) %MON seaice_tsnumber              =                     6
(PID.TID 0000.0001) %MON seaice_time_sec              =   1.5000000000000E+01
(PID.TID 0000.0001) %MON seaice_uice_max              =   1.0426169947211E-02
(PID.TID 0000.0001) %MON seaice_uice_min              =  -1.0657019258595E-02
(PID.TID 0000.0001) %MON seaice_uice_mean             =  -2.5659180865512E-07
(PID.TID 0000.0001) %MON seaice_uice_sd               =   4.4871758376987E-03
(PID.TID 0000.0001) %MON seaice_uice_del2             =   1.3465797579575E-06
(PID.TID 0000.0001) %MON seaice_vice_max              =   1.0176591245911E-02
(PID.TID 0000.0001) %MON seaice_vice_min              =  -1.0306026259732E-02
(PID.TID 0000.0001) %MON seaice_vice_mean             =   1.1187671490724E-06
(PID.TID 0000.0001) %MON seaice_vice_sd               =   4.4652403024217E-03
(PID.TID 0000.0001) %MON seaice_vice_del2             =   1.3481327090281E-06
(PID.TID 0000.0001) %MON seaice_area_max              =   1.0000000000000E+00
(PID.TID 0000.0001) %MON seaice_area_min              =   9.9999854642342E-01
(PID.TID 0000.0001) %MON seaice_area_mean             =   9.9999991134054E-01
(PID.TID 0000.0001) %MON seaice_area_sd               =   1.9899372405425E-07
(PID.TID 0000.0001) %MON seaice_area_del2             =   2.1149621783940E-09
(PID.TID 0000.0001) %MON seaice_heff_max              =   3.0999864964086E-01
(PID.TID 0000.0001) %MON seaice_heff_min              =   2.9006054169452E-01
(PID.TID 0000.0001) %MON seaice_heff_mean             =   3.0067126525963E-01
(PID.TID 0000.0001) %MON seaice_heff_sd               =   5.0069230437158E-03
(PID.TID 0000.0001) %MON seaice_heff_del2             =   1.2853747487249E-05
(PID.TID 0000.0001) %MON seaice_hsnow_max             =   0.0000000000000E+00
(PID.TID 0000.0001) %MON seaice_hsnow_min             =   0.0000000000000E+00
(PID.TID 0000.0001) %MON seaice_hsnow_mean            =   0.0000000000000E+00
(PID.TID 0000.0001) %MON seaice_hsnow_sd              =   0.0000000000000E+00
(PID.TID 0000.0001) %MON seaice_hsnow_del2            =   0.0000000000000E+00
(PID.TID 0000.0001) // =======================================================
(PID.TID 0000.0001) // End MONITOR SEAICE statistics
(PID.TID 0000.0001) // =======================================================
 Computing Diagnostic #    163  SIuice       Counter:       1   Parms: UU      M1      
           Vector  Mate for  SIuice       Diagnostic #    164  SIvice   exists 
 Computing Diagnostic #    164  SIvice       Counter:       1   Parms: VV      M1      
           Vector  Mate for  SIvice       Diagnostic #    163  SIuice   exists 
 Computing Diagnostic #    149  SIheff       Counter:       1   Parms: SM      M1      
 Computing Diagnostic #    146  SIarea       Counter:       1   Parms: SM      M1      
 Computing Diagnostic #    228  SIshear      Counter:       1   Parms: SM      M1      
 Computing Diagnostic #    233  SIcohes      Counter:       1   Parms: SM      M1      
 Computing Diagnostic #    221  SIsig1       Counter:       1   Parms: SM      M1      
 Computing Diagnostic #    222  SIsig2       Counter:       1   Parms: SM      M1      
 Computing Diagnostic #    231  SIdamage     Counter:       1   Parms: SM      M1      
 Computing Diagnostic #    165  SItaux       Counter:       1   Parms: UU      U1      
           Vector  Mate for  SItaux       Diagnostic #    166  SItauy   exists 
 Computing Diagnostic #    166  SItauy       Counter:       1   Parms: VV      U1      
           Vector  Mate for  SItauy       Diagnostic #    165  SItaux   exists 
 Computing Diagnostic #    133  EXFuwind     Counter:       1   Parms: UM      U1      
 Computing Diagnostic #    134  EXFvwind     Counter:       1   Parms: VM      U1      
(PID.TID 0000.0001)  S/R SEAICE_KRYLOV: Picard iterate / total, KRYLOVgamma_lin, initial norm =       1    601 0.10000E+00 0.11155E+00
(PID.TID 0000.0001)  S/R SEAICE_KRYLOV: Picard iterate / total =      1 /    601, Nb. of FGMRES iterations =      1
(PID.TID 0000.0001)  S/R SEAICE_KRYLOV: Picard iterate / total, KRYLOVgamma_lin, initial norm =       2    602 0.50000E-01 0.24785E-03
(PID.TID 0000.0001)  S/R SEAICE_KRYLOV: Picard iterate / total =      2 /    602, Nb. of FGMRES iterations =      1
(PID.TID 0000.0001)  S/R SEAICE_KRYLOV: Picard iterate / total, KRYLOVgamma_lin, initial norm =       3    603 0.50000E-01 0.38155E-04
(PID.TID 0000.0001)  S/R SEAICE_KRYLOV: Picard iterate / total =      3 /    603, Nb. of FGMRES iterations =      1
(PID.TID 0000.0001)  S/R SEAICE_KRYLOV: Picard iterate / total, KRYLOVgamma_lin, initial norm =       4    604 0.33333E-01 0.24489E-04
(PID.TID 0000.0001)  S/R SEAICE_KRYLOV: Picard iterate / total =      4 /    604, Nb. of FGMRES iterations =      1
(PID.TID 0000.0001)  S/R SEAICE_KRYLOV: Picard iterate / total, KRYLOVgamma_lin, initial norm =       5    605 0.33333E-01 0.11788E-04
(PID.TID 0000.0001)  S/R SEAICE_KRYLOV: Picard iterate / total =      5 /    605, Nb. of FGMRES iterations =      1
(PID.TID 0000.0001)  S/R SEAICE_KRYLOV: Picard iterate / total, KRYLOVgamma_lin, initial norm =       6    606 0.33333E-01 0.59303E-05
(PID.TID 0000.0001)  S/R SEAICE_KRYLOV: Picard iterate / total =      6 /    606, Nb. of FGMRES iterations =      1
(PID.TID 0000.0001)  S/R SEAICE_KRYLOV: Picard iterate / total, KRYLOVgamma_lin, initial norm =       7    607 0.33333E-01 0.29622E-05
(PID.TID 0000.0001)  S/R SEAICE_KRYLOV: Picard iterate / total =      7 /    607, Nb. of FGMRES iterations =      1
(PID.TID 0000.0001)  S/R SEAICE_KRYLOV: Picard iterate / total, KRYLOVgamma_lin, initial norm =       8    608 0.25000E-01 0.14814E-05
(PID.TID 0000.0001)  S/R SEAICE_KRYLOV: Picard iterate / total =      8 /    608, Nb. of FGMRES iterations =      1
(PID.TID 0000.0001)  S/R SEAICE_KRYLOV: Picard iterate / total, KRYLOVgamma_lin, initial norm =       9    609 0.20000E-01 0.74066E-06
(PID.TID 0000.0001)  S/R SEAICE_KRYLOV: Picard iterate / total =      9 /    609, Nb. of FGMRES iterations =      1
(PID.TID 0000.0001)  S/R SEAICE_KRYLOV: Picard iterate / total, KRYLOVgamma_lin, initial norm =      10    610 0.12500E-01 0.37033E-06
(PID.TID 0000.0001)  S/R SEAICE_KRYLOV: Picard iterate / total =     10 /    610, Nb. of FGMRES iterations =      1
(PID.TID 0000.0001)  S/R SEAICE_KRYLOV: Picard iterate / total, KRYLOVgamma_lin, initial norm =      11    611 0.12500E-01 0.18517E-06
(PID.TID 0000.0001)  S/R SEAICE_KRYLOV: Picard iterate / total =     11 /    611, Nb. of FGMRES iterations =      1
(PID.TID 0000.0001)  S/R SEAICE_KRYLOV: Picard iterate / total, KRYLOVgamma_lin, initial norm =      12    612 0.12500E-01 0.92583E-07
(PID.TID 0000.0001)  S/R SEAICE_KRYLOV: Picard iterate / total =     12 /    612, Nb. of FGMRES iterations =      1
(PID.TID 0000.0001)  S/R SEAICE_KRYLOV: Picard iterate / total, KRYLOVgamma_lin, initial norm =      13    613 0.12500E-01 0.46291E-07
(PID.TID 0000.0001)  S/R SEAICE_KRYLOV: Picard iterate / total =     13 /    613, Nb. of FGMRES iterations =      1
(PID.TID 0000.0001)  S/R SEAICE_KRYLOV: Picard iterate / total, KRYLOVgamma_lin, initial norm =      14    614 0.12500E-01 0.23146E-07
(PID.TID 0000.0001)  S/R SEAICE_KRYLOV: Picard iterate / total =     14 /    614, Nb. of FGMRES iterations =      1
(PID.TID 0000.0001)  S/R SEAICE_KRYLOV: Picard iterate / total, KRYLOVgamma_lin, initial norm =      15    615 0.12500E-01 0.11573E-07
(PID.TID 0000.0001)  S/R SEAICE_KRYLOV: Picard iterate / total =     15 /    615, Nb. of FGMRES iterations =      1
(PID.TID 0000.0001)  S/R SEAICE_KRYLOV: Picard iterate / total, KRYLOVgamma_lin, initial norm =      16    616 0.12500E-01 0.57864E-08
(PID.TID 0000.0001)  S/R SEAICE_KRYLOV: Picard iterate / total =     16 /    616, Nb. of FGMRES iterations =      1
(PID.TID 0000.0001)  S/R SEAICE_KRYLOV: Picard iterate / total, KRYLOVgamma_lin, initial norm =      17    617 0.12500E-01 0.28932E-08
(PID.TID 0000.0001)  S/R SEAICE_KRYLOV: Picard iterate / total =     17 /    617, Nb. of FGMRES iterations =      1
(PID.TID 0000.0001)  S/R SEAICE_KRYLOV: Picard iterate / total, KRYLOVgamma_lin, initial norm =      18    618 0.12500E-01 0.14466E-08
(PID.TID 0000.0001)  S/R SEAICE_KRYLOV: Picard iterate / total =     18 /    618, Nb. of FGMRES iterations =      1
(PID.TID 0000.0001)  S/R SEAICE_KRYLOV: Picard iterate / total, KRYLOVgamma_lin, initial norm =      19    619 0.12500E-01 0.72330E-09
(PID.TID 0000.0001)  S/R SEAICE_KRYLOV: Picard iterate / total =     19 /    619, Nb. of FGMRES iterations =      1
(PID.TID 0000.0001)  S/R SEAICE_KRYLOV: Picard iterate / total, KRYLOVgamma_lin, initial norm =      20    620 0.12500E-01 0.36165E-09
(PID.TID 0000.0001)  S/R SEAICE_KRYLOV: Picard iterate / total =     20 /    620, Nb. of FGMRES iterations =      1
(PID.TID 0000.0001)  S/R SEAICE_KRYLOV: Picard iterate / total, KRYLOVgamma_lin, initial norm =      21    621 0.12500E-01 0.18083E-09
(PID.TID 0000.0001)  S/R SEAICE_KRYLOV: Picard iterate / total =     21 /    621, Nb. of FGMRES iterations =      1
(PID.TID 0000.0001)  S/R SEAICE_KRYLOV: Picard iterate / total, KRYLOVgamma_lin, initial norm =      22    622 0.12500E-01 0.90413E-10
(PID.TID 0000.0001)  S/R SEAICE_KRYLOV: Picard iterate / total =     22 /    622, Nb. of FGMRES iterations =      1
(PID.TID 0000.0001)  S/R SEAICE_KRYLOV: Picard iterate / total, KRYLOVgamma_lin, initial norm =      23    623 0.12500E-01 0.45206E-10
(PID.TID 0000.0001)  S/R SEAICE_KRYLOV: Picard iterate / total =     23 /    623, Nb. of FGMRES iterations =      1
(PID.TID 0000.0001)  S/R SEAICE_KRYLOV: Picard iterate / total, KRYLOVgamma_lin, initial norm =      24    624 0.12500E-01 0.22603E-10
(PID.TID 0000.0001)  S/R SEAICE_KRYLOV: Picard iterate / total =     24 /    624, Nb. of FGMRES iterations =      1
(PID.TID 0000.0001)  S/R SEAICE_KRYLOV: Picard iterate / total, KRYLOVgamma_lin, initial norm =      25    625 0.12500E-01 0.11302E-10
(PID.TID 0000.0001)  S/R SEAICE_KRYLOV: Picard iterate / total =     25 /    625, Nb. of FGMRES iterations =      1
(PID.TID 0000.0001)  S/R SEAICE_KRYLOV: Picard iterate / total, KRYLOVgamma_lin, initial norm =      26    626 0.12500E-01 0.56508E-11
(PID.TID 0000.0001)  S/R SEAICE_KRYLOV: Picard iterate / total =     26 /    626, Nb. of FGMRES iterations =      1
(PID.TID 0000.0001)  S/R SEAICE_KRYLOV: Picard iterate / total, KRYLOVgamma_lin, initial norm =      27    627 0.12500E-01 0.28254E-11
(PID.TID 0000.0001)  S/R SEAICE_KRYLOV: Picard iterate / total =     27 /    627, Nb. of FGMRES iterations =      1
(PID.TID 0000.0001)  S/R SEAICE_KRYLOV: Picard iterate / total, KRYLOVgamma_lin, initial norm =      28    628 0.12500E-01 0.14127E-11
(PID.TID 0000.0001)  S/R SEAICE_KRYLOV: Picard iterate / total =     28 /    628, Nb. of FGMRES iterations =      1
(PID.TID 0000.0001)  S/R SEAICE_KRYLOV: Picard iterate / total, KRYLOVgamma_lin, initial norm =      29    629 0.12500E-01 0.70635E-12
(PID.TID 0000.0001)  S/R SEAICE_KRYLOV: Picard iterate / total =     29 /    629, Nb. of FGMRES iterations =      1
(PID.TID 0000.0001)  S/R SEAICE_KRYLOV: Picard iterate / total, KRYLOVgamma_lin, initial norm =      30    630 0.12500E-01 0.35318E-12
(PID.TID 0000.0001)  S/R SEAICE_KRYLOV: Picard iterate / total =     30 /    630, Nb. of FGMRES iterations =      1
(PID.TID 0000.0001)  S/R SEAICE_KRYLOV: Picard iterate / total, KRYLOVgamma_lin, initial norm =      31    631 0.12500E-01 0.17659E-12
(PID.TID 0000.0001)  S/R SEAICE_KRYLOV: Picard iterate / total =     31 /    631, Nb. of FGMRES iterations =      1
(PID.TID 0000.0001)  S/R SEAICE_KRYLOV: Picard iterate / total, KRYLOVgamma_lin, final   norm =      32    632 0.12500E-01 0.88294E-13
(PID.TID 0000.0001)  // =======================================================
(PID.TID 0000.0001)  // Begin KRYLOV statistics
(PID.TID 0000.0001)  // =======================================================
(PID.TID 0000.0001)  %KRYLOV_MON: time step              =          7
(PID.TID 0000.0001)  %KRYLOV_MON: Nb. of time steps      =          1
(PID.TID 0000.0001)  %KRYLOV_MON: Nb. of Picard steps    =         32
(PID.TID 0000.0001)  %KRYLOV_MON: Nb. of Krylov steps    =         31
(PID.TID 0000.0001)  %KRYLOV_MON: Nb. of Picard failures =          0
(PID.TID 0000.0001)  %KRYLOV_MON: Nb. of Krylov failures =          0
(PID.TID 0000.0001)  // =======================================================
(PID.TID 0000.0001)  // End KRYLOV statistics
(PID.TID 0000.0001)  // =======================================================
(PID.TID 0000.0001)  S/R SEAICE_KRYLOV: Total number FGMRES iterations =     31 in timestep          7
(PID.TID 0000.0001) // =======================================================
(PID.TID 0000.0001) // Begin MONITOR dynamic field statistics
(PID.TID 0000.0001) // =======================================================
(PID.TID 0000.0001) %MON time_tsnumber                =                     7
(PID.TID 0000.0001) %MON time_secondsf                =   1.7500000000000E+01
(PID.TID 0000.0001) %MON dynstat_eta_max              =   0.0000000000000E+00
(PID.TID 0000.0001) %MON dynstat_eta_min              =   0.0000000000000E+00
(PID.TID 0000.0001) %MON dynstat_eta_mean             =   0.0000000000000E+00
(PID.TID 0000.0001) %MON dynstat_eta_sd               =   0.0000000000000E+00
(PID.TID 0000.0001) %MON dynstat_eta_del2             =   0.0000000000000E+00
(PID.TID 0000.0001) %MON dynstat_uvel_max             =   9.8437500000000E-03
(PID.TID 0000.0001) %MON dynstat_uvel_min             =  -9.8437500000000E-03
(PID.TID 0000.0001) %MON dynstat_uvel_mean            =   0.0000000000000E+00
(PID.TID 0000.0001) %MON dynstat_uvel_sd              =   5.7727978755972E-03
(PID.TID 0000.0001) %MON dynstat_uvel_del2            =   1.0089048364799E-20
(PID.TID 0000.0001) %MON dynstat_vvel_max             =   9.8437500000000E-03
(PID.TID 0000.0001) %MON dynstat_vvel_min             =  -9.8437500000000E-03
(PID.TID 0000.0001) %MON dynstat_vvel_mean            =   0.0000000000000E+00
(PID.TID 0000.0001) %MON dynstat_vvel_sd              =   5.7727978755972E-03
(PID.TID 0000.0001) %MON dynstat_vvel_del2            =   1.0089048364799E-20
(PID.TID 0000.0001) %MON dynstat_wvel_max             =   1.1914062500000E-05
(PID.TID 0000.0001) %MON dynstat_wvel_min             =  -1.1914062500000E-05
(PID.TID 0000.0001) %MON dynstat_wvel_mean            =   3.4694469519536E-25
(PID.TID 0000.0001) %MON dynstat_wvel_sd              =   1.7200872247780E-06
(PID.TID 0000.0001) %MON dynstat_wvel_del2            =   2.8187489626940E-08
(PID.TID 0000.0001) %MON dynstat_theta_max            =  -1.6200000000000E+00
(PID.TID 0000.0001) %MON dynstat_theta_min            =  -1.6200000000000E+00
(PID.TID 0000.0001) %MON dynstat_theta_mean           =  -1.6200000000000E+00
(PID.TID 0000.0001) %MON dynstat_theta_sd             =   0.0000000000000E+00
(PID.TID 0000.0001) %MON dynstat_theta_del2           =   0.0000000000000E+00
(PID.TID 0000.0001) %MON dynstat_salt_max             =   3.0000000000000E+01
(PID.TID 0000.0001) %MON dynstat_salt_min             =   3.0000000000000E+01
(PID.TID 0000.0001) %MON dynstat_salt_mean            =   3.0000000000000E+01
(PID.TID 0000.0001) %MON dynstat_salt_sd              =   0.0000000000000E+00
(PID.TID 0000.0001) %MON dynstat_salt_del2            =   0.0000000000000E+00
(PID.TID 0000.0001) %MON trAdv_CFL_u_max              =   3.0761718750000E-06
(PID.TID 0000.0001) %MON trAdv_CFL_v_max              =   3.0761718750000E-06
(PID.TID 0000.0001) %MON trAdv_CFL_w_max              =   2.9785156250000E-06
(PID.TID 0000.0001) %MON advcfl_uvel_max              =   3.0761718750000E-06
(PID.TID 0000.0001) %MON advcfl_vvel_max              =   3.0761718750000E-06
(PID.TID 0000.0001) %MON advcfl_wvel_max              =   5.9570312500000E-06
(PID.TID 0000.0001) %MON advcfl_W_hf_max              =   0.0000000000000E+00
(PID.TID 0000.0001) %MON pe_b_mean                    =   0.0000000000000E+00
(PID.TID 0000.0001) %MON ke_max                       =   9.0844726562500E-05
(PID.TID 0000.0001) %MON ke_mean                      =   3.2804489135742E-05
(PID.TID 0000.0001) %MON ke_vol                       =   2.6214400000000E+12
(PID.TID 0000.0001) %MON vort_r_min                   =  -7.8125000000000E-08
(PID.TID 0000.0001) %MON vort_r_max                   =   1.2304687500000E-06
(PID.TID 0000.0001) %MON vort_a_mean                  =   1.4856000000000E-04
(PID.TID 0000.0001) %MON vort_a_sd                    =   1.5312918562496E-06
(PID.TID 0000.0001) %MON vort_p_mean                  =   1.5552375000000E-04
(PID.TID 0000.0001) %MON vort_p_sd                    =   5.5921473110222E-05
(PID.TID 0000.0001) %MON surfExpan_theta_mean         =   0.0000000000000E+00
(PID.TID 0000.0001) %MON surfExpan_salt_mean          =   1.3877787807814E-23
(PID.TID 0000.0001) // =======================================================
(PID.TID 0000.0001) // End MONITOR dynamic field statistics
(PID.TID 0000.0001) // =======================================================
(PID.TID 0000.0001) // =======================================================
(PID.TID 0000.0001) // Begin MONITOR SEAICE statistics
(PID.TID 0000.0001) // =======================================================
(PID.TID 0000.0001) %MON seaice_tsnumber              =                     7
(PID.TID 0000.0001) %MON seaice_time_sec              =   1.7500000000000E+01
(PID.TID 0000.0001) %MON seaice_uice_max              =   1.2135478182640E-02
(PID.TID 0000.0001) %MON seaice_uice_min              =  -1.2396772412047E-02
(PID.TID 0000.0001) %MON seaice_uice_mean             =  -3.0612385066768E-07
(PID.TID 0000.0001) %MON seaice_uice_sd               =   5.2245640006311E-03
(PID.TID 0000.0001) %MON seaice_uice_del2             =   1.5973447432966E-06
(PID.TID 0000.0001) %MON seaice_vice_max              =   1.1847297609545E-02
(PID.TID 0000.0001) %MON seaice_vice_min              =  -1.1994656472176E-02
(PID.TID 0000.0001) %MON seaice_vice_mean             =   1.3077332868371E-06
(PID.TID 0000.0001) %MON seaice_vice_sd               =   5.1991357501546E-03
(PID.TID 0000.0001) %MON seaice_vice_del2             =   1.6003001419237E-06
(PID.TID 0000.0001) %MON seaice_area_max              =   1.0000000000000E+00
(PID.TID 0000.0001) %MON seaice_area_min              =   9.9999806523511E-01
(PID.TID 0000.0001) %MON seaice_area_mean             =   9.9999988219569E-01
(PID.TID 0000.0001) %MON seaice_area_sd               =   2.6399344406331E-07
(PID.TID 0000.0001) %MON seaice_area_del2             =   2.8930479322309E-09
(PID.TID 0000.0001) %MON seaice_heff_max              =   3.0999864189408E-01
(PID.TID 0000.0001) %MON seaice_heff_min              =   2.9006053372067E-01
(PID.TID 0000.0001) %MON seaice_heff_mean             =   3.0067126525963E-01
(PID.TID 0000.0001) %MON seaice_heff_sd               =   5.0069232355860E-03
(PID.TID 0000.0001) %MON seaice_heff_del2             =   1.2853746666734E-05
(PID.TID 0000.0001) %MON seaice_hsnow_max             =   0.0000000000000E+00
(PID.TID 0000.0001) %MON seaice_hsnow_min             =   0.0000000000000E+00
(PID.TID 0000.0001) %MON seaice_hsnow_mean            =   0.0000000000000E+00
(PID.TID 0000.0001) %MON seaice_hsnow_sd              =   0.0000000000000E+00
(PID.TID 0000.0001) %MON seaice_hsnow_del2            =   0.0000000000000E+00
(PID.TID 0000.0001) // =======================================================
(PID.TID 0000.0001) // End MONITOR SEAICE statistics
(PID.TID 0000.0001) // =======================================================
 Computing Diagnostic #    163  SIuice       Counter:       1   Parms: UU      M1      
           Vector  Mate for  SIuice       Diagnostic #    164  SIvice   exists 
 Computing Diagnostic #    164  SIvice       Counter:       1   Parms: VV      M1      
           Vector  Mate for  SIvice       Diagnostic #    163  SIuice   exists 
 Computing Diagnostic #    149  SIheff       Counter:       1   Parms: SM      M1      
 Computing Diagnostic #    146  SIarea       Counter:       1   Parms: SM      M1      
 Computing Diagnostic #    228  SIshear      Counter:       1   Parms: SM      M1      
 Computing Diagnostic #    233  SIcohes      Counter:       1   Parms: SM      M1      
 Computing Diagnostic #    221  SIsig1       Counter:       1   Parms: SM      M1      
 Computing Diagnostic #    222  SIsig2       Counter:       1   Parms: SM      M1      
 Computing Diagnostic #    231  SIdamage     Counter:       1   Parms: SM      M1      
 Computing Diagnostic #    165  SItaux       Counter:       1   Parms: UU      U1      
           Vector  Mate for  SItaux       Diagnostic #    166  SItauy   exists 
 Computing Diagnostic #    166  SItauy       Counter:       1   Parms: VV      U1      
           Vector  Mate for  SItauy       Diagnostic #    165  SItaux   exists 
 Computing Diagnostic #    133  EXFuwind     Counter:       1   Parms: UM      U1      
 Computing Diagnostic #    134  EXFvwind     Counter:       1   Parms: VM      U1      
(PID.TID 0000.0001)  S/R SEAICE_KRYLOV: Picard iterate / total, KRYLOVgamma_lin, initial norm =       1    701 0.10000E+00 0.11110E+00
(PID.TID 0000.0001)  S/R SEAICE_KRYLOV: Picard iterate / total =      1 /    701, Nb. of FGMRES iterations =      1
(PID.TID 0000.0001)  S/R SEAICE_KRYLOV: Picard iterate / total, KRYLOVgamma_lin, initial norm =       2    702 0.50000E-01 0.23440E-03
(PID.TID 0000.0001)  S/R SEAICE_KRYLOV: Picard iterate / total =      2 /    702, Nb. of FGMRES iterations =      1
(PID.TID 0000.0001)  S/R SEAICE_KRYLOV: Picard iterate / total, KRYLOVgamma_lin, initial norm =       3    703 0.50000E-01 0.35514E-04
(PID.TID 0000.0001)  S/R SEAICE_KRYLOV: Picard iterate / total =      3 /    703, Nb. of FGMRES iterations =      1
(PID.TID 0000.0001)  S/R SEAICE_KRYLOV: Picard iterate / total, KRYLOVgamma_lin, initial norm =       4    704 0.33333E-01 0.22863E-04
(PID.TID 0000.0001)  S/R SEAICE_KRYLOV: Picard iterate / total =      4 /    704, Nb. of FGMRES iterations =      1
(PID.TID 0000.0001)  S/R SEAICE_KRYLOV: Picard iterate / total, KRYLOVgamma_lin, initial norm =       5    705 0.33333E-01 0.10990E-04
(PID.TID 0000.0001)  S/R SEAICE_KRYLOV: Picard iterate / total =      5 /    705, Nb. of FGMRES iterations =      1
(PID.TID 0000.0001)  S/R SEAICE_KRYLOV: Picard iterate / total, KRYLOVgamma_lin, initial norm =       6    706 0.33333E-01 0.55300E-05
(PID.TID 0000.0001)  S/R SEAICE_KRYLOV: Picard iterate / total =      6 /    706, Nb. of FGMRES iterations =      1
(PID.TID 0000.0001)  S/R SEAICE_KRYLOV: Picard iterate / total, KRYLOVgamma_lin, initial norm =       7    707 0.33333E-01 0.27622E-05
(PID.TID 0000.0001)  S/R SEAICE_KRYLOV: Picard iterate / total =      7 /    707, Nb. of FGMRES iterations =      1
(PID.TID 0000.0001)  S/R SEAICE_KRYLOV: Picard iterate / total, KRYLOVgamma_lin, initial norm =       8    708 0.25000E-01 0.13813E-05
(PID.TID 0000.0001)  S/R SEAICE_KRYLOV: Picard iterate / total =      8 /    708, Nb. of FGMRES iterations =      1
(PID.TID 0000.0001)  S/R SEAICE_KRYLOV: Picard iterate / total, KRYLOVgamma_lin, initial norm =       9    709 0.20000E-01 0.69064E-06
(PID.TID 0000.0001)  S/R SEAICE_KRYLOV: Picard iterate / total =      9 /    709, Nb. of FGMRES iterations =      1
(PID.TID 0000.0001)  S/R SEAICE_KRYLOV: Picard iterate / total, KRYLOVgamma_lin, initial norm =      10    710 0.12500E-01 0.34532E-06
(PID.TID 0000.0001)  S/R SEAICE_KRYLOV: Picard iterate / total =     10 /    710, Nb. of FGMRES iterations =      1
(PID.TID 0000.0001)  S/R SEAICE_KRYLOV: Picard iterate / total, KRYLOVgamma_lin, initial norm =      11    711 0.12500E-01 0.17266E-06
(PID.TID 0000.0001)  S/R SEAICE_KRYLOV: Picard iterate / total =     11 /    711, Nb. of FGMRES iterations =      1
(PID.TID 0000.0001)  S/R SEAICE_KRYLOV: Picard iterate / total, KRYLOVgamma_lin, initial norm =      12    712 0.12500E-01 0.86330E-07
(PID.TID 0000.0001)  S/R SEAICE_KRYLOV: Picard iterate / total =     12 /    712, Nb. of FGMRES iterations =      1
(PID.TID 0000.0001)  S/R SEAICE_KRYLOV: Picard iterate / total, KRYLOVgamma_lin, initial norm =      13    713 0.12500E-01 0.43165E-07
(PID.TID 0000.0001)  S/R SEAICE_KRYLOV: Picard iterate / total =     13 /    713, Nb. of FGMRES iterations =      1
(PID.TID 0000.0001)  S/R SEAICE_KRYLOV: Picard iterate / total, KRYLOVgamma_lin, initial norm =      14    714 0.12500E-01 0.21582E-07
(PID.TID 0000.0001)  S/R SEAICE_KRYLOV: Picard iterate / total =     14 /    714, Nb. of FGMRES iterations =      1
(PID.TID 0000.0001)  S/R SEAICE_KRYLOV: Picard iterate / total, KRYLOVgamma_lin, initial norm =      15    715 0.12500E-01 0.10791E-07
(PID.TID 0000.0001)  S/R SEAICE_KRYLOV: Picard iterate / total =     15 /    715, Nb. of FGMRES iterations =      1
(PID.TID 0000.0001)  S/R SEAICE_KRYLOV: Picard iterate / total, KRYLOVgamma_lin, initial norm =      16    716 0.12500E-01 0.53956E-08
(PID.TID 0000.0001)  S/R SEAICE_KRYLOV: Picard iterate / total =     16 /    716, Nb. of FGMRES iterations =      1
(PID.TID 0000.0001)  S/R SEAICE_KRYLOV: Picard iterate / total, KRYLOVgamma_lin, initial norm =      17    717 0.12500E-01 0.26978E-08
(PID.TID 0000.0001)  S/R SEAICE_KRYLOV: Picard iterate / total =     17 /    717, Nb. of FGMRES iterations =      1
(PID.TID 0000.0001)  S/R SEAICE_KRYLOV: Picard iterate / total, KRYLOVgamma_lin, initial norm =      18    718 0.12500E-01 0.13489E-08
(PID.TID 0000.0001)  S/R SEAICE_KRYLOV: Picard iterate / total =     18 /    718, Nb. of FGMRES iterations =      1
(PID.TID 0000.0001)  S/R SEAICE_KRYLOV: Picard iterate / total, KRYLOVgamma_lin, initial norm =      19    719 0.12500E-01 0.67445E-09
(PID.TID 0000.0001)  S/R SEAICE_KRYLOV: Picard iterate / total =     19 /    719, Nb. of FGMRES iterations =      1
(PID.TID 0000.0001)  S/R SEAICE_KRYLOV: Picard iterate / total, KRYLOVgamma_lin, initial norm =      20    720 0.12500E-01 0.33723E-09
(PID.TID 0000.0001)  S/R SEAICE_KRYLOV: Picard iterate / total =     20 /    720, Nb. of FGMRES iterations =      1
(PID.TID 0000.0001)  S/R SEAICE_KRYLOV: Picard iterate / total, KRYLOVgamma_lin, initial norm =      21    721 0.12500E-01 0.16861E-09
(PID.TID 0000.0001)  S/R SEAICE_KRYLOV: Picard iterate / total =     21 /    721, Nb. of FGMRES iterations =      1
(PID.TID 0000.0001)  S/R SEAICE_KRYLOV: Picard iterate / total, KRYLOVgamma_lin, initial norm =      22    722 0.12500E-01 0.84307E-10
(PID.TID 0000.0001)  S/R SEAICE_KRYLOV: Picard iterate / total =     22 /    722, Nb. of FGMRES iterations =      1
(PID.TID 0000.0001)  S/R SEAICE_KRYLOV: Picard iterate / total, KRYLOVgamma_lin, initial norm =      23    723 0.12500E-01 0.42153E-10
(PID.TID 0000.0001)  S/R SEAICE_KRYLOV: Picard iterate / total =     23 /    723, Nb. of FGMRES iterations =      1
(PID.TID 0000.0001)  S/R SEAICE_KRYLOV: Picard iterate / total, KRYLOVgamma_lin, initial norm =      24    724 0.12500E-01 0.21077E-10
(PID.TID 0000.0001)  S/R SEAICE_KRYLOV: Picard iterate / total =     24 /    724, Nb. of FGMRES iterations =      1
(PID.TID 0000.0001)  S/R SEAICE_KRYLOV: Picard iterate / total, KRYLOVgamma_lin, initial norm =      25    725 0.12500E-01 0.10538E-10
(PID.TID 0000.0001)  S/R SEAICE_KRYLOV: Picard iterate / total =     25 /    725, Nb. of FGMRES iterations =      1
(PID.TID 0000.0001)  S/R SEAICE_KRYLOV: Picard iterate / total, KRYLOVgamma_lin, initial norm =      26    726 0.12500E-01 0.52692E-11
(PID.TID 0000.0001)  S/R SEAICE_KRYLOV: Picard iterate / total =     26 /    726, Nb. of FGMRES iterations =      1
(PID.TID 0000.0001)  S/R SEAICE_KRYLOV: Picard iterate / total, KRYLOVgamma_lin, initial norm =      27    727 0.12500E-01 0.26346E-11
(PID.TID 0000.0001)  S/R SEAICE_KRYLOV: Picard iterate / total =     27 /    727, Nb. of FGMRES iterations =      1
(PID.TID 0000.0001)  S/R SEAICE_KRYLOV: Picard iterate / total, KRYLOVgamma_lin, initial norm =      28    728 0.12500E-01 0.13173E-11
(PID.TID 0000.0001)  S/R SEAICE_KRYLOV: Picard iterate / total =     28 /    728, Nb. of FGMRES iterations =      1
(PID.TID 0000.0001)  S/R SEAICE_KRYLOV: Picard iterate / total, KRYLOVgamma_lin, initial norm =      29    729 0.12500E-01 0.65864E-12
(PID.TID 0000.0001)  S/R SEAICE_KRYLOV: Picard iterate / total =     29 /    729, Nb. of FGMRES iterations =      1
(PID.TID 0000.0001)  S/R SEAICE_KRYLOV: Picard iterate / total, KRYLOVgamma_lin, initial norm =      30    730 0.12500E-01 0.32932E-12
(PID.TID 0000.0001)  S/R SEAICE_KRYLOV: Picard iterate / total =     30 /    730, Nb. of FGMRES iterations =      1
(PID.TID 0000.0001)  S/R SEAICE_KRYLOV: Picard iterate / total, KRYLOVgamma_lin, initial norm =      31    731 0.12500E-01 0.16466E-12
(PID.TID 0000.0001)  S/R SEAICE_KRYLOV: Picard iterate / total =     31 /    731, Nb. of FGMRES iterations =      1
(PID.TID 0000.0001)  S/R SEAICE_KRYLOV: Picard iterate / total, KRYLOVgamma_lin, final   norm =      32    732 0.12500E-01 0.82331E-13
(PID.TID 0000.0001)  // =======================================================
(PID.TID 0000.0001)  // Begin KRYLOV statistics
(PID.TID 0000.0001)  // =======================================================
(PID.TID 0000.0001)  %KRYLOV_MON: time step              =          8
(PID.TID 0000.0001)  %KRYLOV_MON: Nb. of time steps      =          1
(PID.TID 0000.0001)  %KRYLOV_MON: Nb. of Picard steps    =         32
(PID.TID 0000.0001)  %KRYLOV_MON: Nb. of Krylov steps    =         31
(PID.TID 0000.0001)  %KRYLOV_MON: Nb. of Picard failures =          0
(PID.TID 0000.0001)  %KRYLOV_MON: Nb. of Krylov failures =          0
(PID.TID 0000.0001)  // =======================================================
(PID.TID 0000.0001)  // End KRYLOV statistics
(PID.TID 0000.0001)  // =======================================================
(PID.TID 0000.0001)  S/R SEAICE_KRYLOV: Total number FGMRES iterations =     31 in timestep          8
(PID.TID 0000.0001) // =======================================================
(PID.TID 0000.0001) // Begin MONITOR dynamic field statistics
(PID.TID 0000.0001) // =======================================================
(PID.TID 0000.0001) %MON time_tsnumber                =                     8
(PID.TID 0000.0001) %MON time_secondsf                =   2.0000000000000E+01
(PID.TID 0000.0001) %MON dynstat_eta_max              =   0.0000000000000E+00
(PID.TID 0000.0001) %MON dynstat_eta_min              =   0.0000000000000E+00
(PID.TID 0000.0001) %MON dynstat_eta_mean             =   0.0000000000000E+00
(PID.TID 0000.0001) %MON dynstat_eta_sd               =   0.0000000000000E+00
(PID.TID 0000.0001) %MON dynstat_eta_del2             =   0.0000000000000E+00
(PID.TID 0000.0001) %MON dynstat_uvel_max             =   9.8437500000000E-03
(PID.TID 0000.0001) %MON dynstat_uvel_min             =  -9.8437500000000E-03
(PID.TID 0000.0001) %MON dynstat_uvel_mean            =   0.0000000000000E+00
(PID.TID 0000.0001) %MON dynstat_uvel_sd              =   5.7727978755972E-03
(PID.TID 0000.0001) %MON dynstat_uvel_del2            =   1.0089048364799E-20
(PID.TID 0000.0001) %MON dynstat_vvel_max             =   9.8437500000000E-03
(PID.TID 0000.0001) %MON dynstat_vvel_min             =  -9.8437500000000E-03
(PID.TID 0000.0001) %MON dynstat_vvel_mean            =   0.0000000000000E+00
(PID.TID 0000.0001) %MON dynstat_vvel_sd              =   5.7727978755972E-03
(PID.TID 0000.0001) %MON dynstat_vvel_del2            =   1.0089048364799E-20
(PID.TID 0000.0001) %MON dynstat_wvel_max             =   1.1914062500000E-05
(PID.TID 0000.0001) %MON dynstat_wvel_min             =  -1.1914062500000E-05
(PID.TID 0000.0001) %MON dynstat_wvel_mean            =   3.4694469519536E-25
(PID.TID 0000.0001) %MON dynstat_wvel_sd              =   1.7200872247780E-06
(PID.TID 0000.0001) %MON dynstat_wvel_del2            =   2.8187489626940E-08
(PID.TID 0000.0001) %MON dynstat_theta_max            =  -1.6200000000000E+00
(PID.TID 0000.0001) %MON dynstat_theta_min            =  -1.6200000000000E+00
(PID.TID 0000.0001) %MON dynstat_theta_mean           =  -1.6200000000000E+00
(PID.TID 0000.0001) %MON dynstat_theta_sd             =   0.0000000000000E+00
(PID.TID 0000.0001) %MON dynstat_theta_del2           =   0.0000000000000E+00
(PID.TID 0000.0001) %MON dynstat_salt_max             =   3.0000000000000E+01
(PID.TID 0000.0001) %MON dynstat_salt_min             =   3.0000000000000E+01
(PID.TID 0000.0001) %MON dynstat_salt_mean            =   3.0000000000000E+01
(PID.TID 0000.0001) %MON dynstat_salt_sd              =   0.0000000000000E+00
(PID.TID 0000.0001) %MON dynstat_salt_del2            =   0.0000000000000E+00
(PID.TID 0000.0001) %MON trAdv_CFL_u_max              =   3.0761718750000E-06
(PID.TID 0000.0001) %MON trAdv_CFL_v_max              =   3.0761718750000E-06
(PID.TID 0000.0001) %MON trAdv_CFL_w_max              =   2.9785156250000E-06
(PID.TID 0000.0001) %MON advcfl_uvel_max              =   3.0761718750000E-06
(PID.TID 0000.0001) %MON advcfl_vvel_max              =   3.0761718750000E-06
(PID.TID 0000.0001) %MON advcfl_wvel_max              =   5.9570312500000E-06
(PID.TID 0000.0001) %MON advcfl_W_hf_max              =   0.0000000000000E+00
(PID.TID 0000.0001) %MON pe_b_mean                    =   0.0000000000000E+00
(PID.TID 0000.0001) %MON ke_max                       =   9.0844726562500E-05
(PID.TID 0000.0001) %MON ke_mean                      =   3.2804489135742E-05
(PID.TID 0000.0001) %MON ke_vol                       =   2.6214400000000E+12
(PID.TID 0000.0001) %MON vort_r_min                   =  -7.8125000000000E-08
(PID.TID 0000.0001) %MON vort_r_max                   =   1.2304687500000E-06
(PID.TID 0000.0001) %MON vort_a_mean                  =   1.4856000000000E-04
(PID.TID 0000.0001) %MON vort_a_sd                    =   1.5312918562496E-06
(PID.TID 0000.0001) %MON vort_p_mean                  =   1.5552375000000E-04
(PID.TID 0000.0001) %MON vort_p_sd                    =   5.5921473110222E-05
(PID.TID 0000.0001) %MON surfExpan_theta_mean         =   0.0000000000000E+00
(PID.TID 0000.0001) %MON surfExpan_salt_mean          =   1.3877787807814E-23
(PID.TID 0000.0001) // =======================================================
(PID.TID 0000.0001) // End MONITOR dynamic field statistics
(PID.TID 0000.0001) // =======================================================
(PID.TID 0000.0001) // =======================================================
(PID.TID 0000.0001) // Begin MONITOR SEAICE statistics
(PID.TID 0000.0001) // =======================================================
(PID.TID 0000.0001) %MON seaice_tsnumber              =                     8
(PID.TID 0000.0001) %MON seaice_time_sec              =   2.0000000000000E+01
(PID.TID 0000.0001) %MON seaice_uice_max              =   1.3834723844443E-02
(PID.TID 0000.0001) %MON seaice_uice_min              =  -1.4125109627924E-02
(PID.TID 0000.0001) %MON seaice_uice_mean             =  -3.6175620158835E-07
(PID.TID 0000.0001) %MON seaice_uice_sd               =   5.9590167566607E-03
(PID.TID 0000.0001) %MON seaice_uice_del2             =   1.8490151846773E-06
(PID.TID 0000.0001) %MON seaice_vice_max              =   1.3509200559643E-02
(PID.TID 0000.0001) %MON seaice_vice_min              =  -1.3673131454215E-02
(PID.TID 0000.0001) %MON seaice_vice_mean             =   1.5008758453626E-06
(PID.TID 0000.0001) %MON seaice_vice_sd               =   5.9301530266731E-03
(PID.TID 0000.0001) %MON seaice_vice_del2             =   1.8532830876326E-06
(PID.TID 0000.0001) %MON seaice_area_max              =   1.0000000000000E+00
(PID.TID 0000.0001) %MON seaice_area_min              =   9.9999750880704E-01
(PID.TID 0000.0001) %MON seaice_area_mean             =   9.9999984904793E-01
(PID.TID 0000.0001) %MON seaice_area_sd               =   3.3935426001738E-07
(PID.TID 0000.0001) %MON seaice_area_del2             =   3.8657595217237E-09
(PID.TID 0000.0001) %MON seaice_heff_max              =   3.0999863307183E-01
(PID.TID 0000.0001) %MON seaice_heff_min              =   2.9006052460362E-01
(PID.TID 0000.0001) %MON seaice_heff_mean             =   3.0067126525963E-01
(PID.TID 0000.0001) %MON seaice_heff_sd               =   5.0069234710438E-03
(PID.TID 0000.0001) %MON seaice_heff_del2             =   1.2853745307017E-05
(PID.TID 0000.0001) %MON seaice_hsnow_max             =   0.0000000000000E+00
(PID.TID 0000.0001) %MON seaice_hsnow_min             =   0.0000000000000E+00
(PID.TID 0000.0001) %MON seaice_hsnow_mean            =   0.0000000000000E+00
(PID.TID 0000.0001) %MON seaice_hsnow_sd              =   0.0000000000000E+00
(PID.TID 0000.0001) %MON seaice_hsnow_del2            =   0.0000000000000E+00
(PID.TID 0000.0001) // =======================================================
(PID.TID 0000.0001) // End MONITOR SEAICE statistics
(PID.TID 0000.0001) // =======================================================
 Computing Diagnostic #    163  SIuice       Counter:       1   Parms: UU      M1      
           Vector  Mate for  SIuice       Diagnostic #    164  SIvice   exists 
 Computing Diagnostic #    164  SIvice       Counter:       1   Parms: VV      M1      
           Vector  Mate for  SIvice       Diagnostic #    163  SIuice   exists 
 Computing Diagnostic #    149  SIheff       Counter:       1   Parms: SM      M1      
 Computing Diagnostic #    146  SIarea       Counter:       1   Parms: SM      M1      
 Computing Diagnostic #    228  SIshear      Counter:       1   Parms: SM      M1      
 Computing Diagnostic #    233  SIcohes      Counter:       1   Parms: SM      M1      
 Computing Diagnostic #    221  SIsig1       Counter:       1   Parms: SM      M1      
 Computing Diagnostic #    222  SIsig2       Counter:       1   Parms: SM      M1      
 Computing Diagnostic #    231  SIdamage     Counter:       1   Parms: SM      M1      
 Computing Diagnostic #    165  SItaux       Counter:       1   Parms: UU      U1      
           Vector  Mate for  SItaux       Diagnostic #    166  SItauy   exists 
 Computing Diagnostic #    166  SItauy       Counter:       1   Parms: VV      U1      
           Vector  Mate for  SItauy       Diagnostic #    165  SItaux   exists 
 Computing Diagnostic #    133  EXFuwind     Counter:       1   Parms: UM      U1      
 Computing Diagnostic #    134  EXFvwind     Counter:       1   Parms: VM      U1      
(PID.TID 0000.0001)  S/R SEAICE_KRYLOV: Picard iterate / total, KRYLOVgamma_lin, initial norm =       1    801 0.10000E+00 0.11070E+00
(PID.TID 0000.0001)  S/R SEAICE_KRYLOV: Picard iterate / total =      1 /    801, Nb. of FGMRES iterations =      1
(PID.TID 0000.0001)  S/R SEAICE_KRYLOV: Picard iterate / total, KRYLOVgamma_lin, initial norm =       2    802 0.50000E-01 0.21673E-03
(PID.TID 0000.0001)  S/R SEAICE_KRYLOV: Picard iterate / total =      2 /    802, Nb. of FGMRES iterations =      1
(PID.TID 0000.0001)  S/R SEAICE_KRYLOV: Picard iterate / total, KRYLOVgamma_lin, initial norm =       3    803 0.50000E-01 0.30289E-04
(PID.TID 0000.0001)  S/R SEAICE_KRYLOV: Picard iterate / total =      3 /    803, Nb. of FGMRES iterations =      1
(PID.TID 0000.0001)  S/R SEAICE_KRYLOV: Picard iterate / total, KRYLOVgamma_lin, initial norm =       4    804 0.33333E-01 0.19871E-04
(PID.TID 0000.0001)  S/R SEAICE_KRYLOV: Picard iterate / total =      4 /    804, Nb. of FGMRES iterations =      1
(PID.TID 0000.0001)  S/R SEAICE_KRYLOV: Picard iterate / total, KRYLOVgamma_lin, initial norm =       5    805 0.33333E-01 0.95223E-05
(PID.TID 0000.0001)  S/R SEAICE_KRYLOV: Picard iterate / total =      5 /    805, Nb. of FGMRES iterations =      1
(PID.TID 0000.0001)  S/R SEAICE_KRYLOV: Picard iterate / total, KRYLOVgamma_lin, initial norm =       6    806 0.33333E-01 0.47937E-05
(PID.TID 0000.0001)  S/R SEAICE_KRYLOV: Picard iterate / total =      6 /    806, Nb. of FGMRES iterations =      1
(PID.TID 0000.0001)  S/R SEAICE_KRYLOV: Picard iterate / total, KRYLOVgamma_lin, initial norm =       7    807 0.33333E-01 0.23942E-05
(PID.TID 0000.0001)  S/R SEAICE_KRYLOV: Picard iterate / total =      7 /    807, Nb. of FGMRES iterations =      1
(PID.TID 0000.0001)  S/R SEAICE_KRYLOV: Picard iterate / total, KRYLOVgamma_lin, initial norm =       8    808 0.25000E-01 0.11973E-05
(PID.TID 0000.0001)  S/R SEAICE_KRYLOV: Picard iterate / total =      8 /    808, Nb. of FGMRES iterations =      1
(PID.TID 0000.0001)  S/R SEAICE_KRYLOV: Picard iterate / total, KRYLOVgamma_lin, initial norm =       9    809 0.20000E-01 0.59865E-06
(PID.TID 0000.0001)  S/R SEAICE_KRYLOV: Picard iterate / total =      9 /    809, Nb. of FGMRES iterations =      1
(PID.TID 0000.0001)  S/R SEAICE_KRYLOV: Picard iterate / total, KRYLOVgamma_lin, initial norm =      10    810 0.12500E-01 0.29932E-06
(PID.TID 0000.0001)  S/R SEAICE_KRYLOV: Picard iterate / total =     10 /    810, Nb. of FGMRES iterations =      1
(PID.TID 0000.0001)  S/R SEAICE_KRYLOV: Picard iterate / total, KRYLOVgamma_lin, initial norm =      11    811 0.12500E-01 0.14966E-06
(PID.TID 0000.0001)  S/R SEAICE_KRYLOV: Picard iterate / total =     11 /    811, Nb. of FGMRES iterations =      1
(PID.TID 0000.0001)  S/R SEAICE_KRYLOV: Picard iterate / total, KRYLOVgamma_lin, initial norm =      12    812 0.12500E-01 0.74831E-07
(PID.TID 0000.0001)  S/R SEAICE_KRYLOV: Picard iterate / total =     12 /    812, Nb. of FGMRES iterations =      1
(PID.TID 0000.0001)  S/R SEAICE_KRYLOV: Picard iterate / total, KRYLOVgamma_lin, initial norm =      13    813 0.12500E-01 0.37416E-07
(PID.TID 0000.0001)  S/R SEAICE_KRYLOV: Picard iterate / total =     13 /    813, Nb. of FGMRES iterations =      1
(PID.TID 0000.0001)  S/R SEAICE_KRYLOV: Picard iterate / total, KRYLOVgamma_lin, initial norm =      14    814 0.12500E-01 0.18708E-07
(PID.TID 0000.0001)  S/R SEAICE_KRYLOV: Picard iterate / total =     14 /    814, Nb. of FGMRES iterations =      1
(PID.TID 0000.0001)  S/R SEAICE_KRYLOV: Picard iterate / total, KRYLOVgamma_lin, initial norm =      15    815 0.12500E-01 0.93539E-08
(PID.TID 0000.0001)  S/R SEAICE_KRYLOV: Picard iterate / total =     15 /    815, Nb. of FGMRES iterations =      1
(PID.TID 0000.0001)  S/R SEAICE_KRYLOV: Picard iterate / total, KRYLOVgamma_lin, initial norm =      16    816 0.12500E-01 0.46769E-08
(PID.TID 0000.0001)  S/R SEAICE_KRYLOV: Picard iterate / total =     16 /    816, Nb. of FGMRES iterations =      1
(PID.TID 0000.0001)  S/R SEAICE_KRYLOV: Picard iterate / total, KRYLOVgamma_lin, initial norm =      17    817 0.12500E-01 0.23385E-08
(PID.TID 0000.0001)  S/R SEAICE_KRYLOV: Picard iterate / total =     17 /    817, Nb. of FGMRES iterations =      1
(PID.TID 0000.0001)  S/R SEAICE_KRYLOV: Picard iterate / total, KRYLOVgamma_lin, initial norm =      18    818 0.12500E-01 0.11692E-08
(PID.TID 0000.0001)  S/R SEAICE_KRYLOV: Picard iterate / total =     18 /    818, Nb. of FGMRES iterations =      1
(PID.TID 0000.0001)  S/R SEAICE_KRYLOV: Picard iterate / total, KRYLOVgamma_lin, initial norm =      19    819 0.12500E-01 0.58462E-09
(PID.TID 0000.0001)  S/R SEAICE_KRYLOV: Picard iterate / total =     19 /    819, Nb. of FGMRES iterations =      1
(PID.TID 0000.0001)  S/R SEAICE_KRYLOV: Picard iterate / total, KRYLOVgamma_lin, initial norm =      20    820 0.12500E-01 0.29231E-09
(PID.TID 0000.0001)  S/R SEAICE_KRYLOV: Picard iterate / total =     20 /    820, Nb. of FGMRES iterations =      1
(PID.TID 0000.0001)  S/R SEAICE_KRYLOV: Picard iterate / total, KRYLOVgamma_lin, initial norm =      21    821 0.12500E-01 0.14615E-09
(PID.TID 0000.0001)  S/R SEAICE_KRYLOV: Picard iterate / total =     21 /    821, Nb. of FGMRES iterations =      1
(PID.TID 0000.0001)  S/R SEAICE_KRYLOV: Picard iterate / total, KRYLOVgamma_lin, initial norm =      22    822 0.12500E-01 0.73077E-10
(PID.TID 0000.0001)  S/R SEAICE_KRYLOV: Picard iterate / total =     22 /    822, Nb. of FGMRES iterations =      1
(PID.TID 0000.0001)  S/R SEAICE_KRYLOV: Picard iterate / total, KRYLOVgamma_lin, initial norm =      23    823 0.12500E-01 0.36539E-10
(PID.TID 0000.0001)  S/R SEAICE_KRYLOV: Picard iterate / total =     23 /    823, Nb. of FGMRES iterations =      1
(PID.TID 0000.0001)  S/R SEAICE_KRYLOV: Picard iterate / total, KRYLOVgamma_lin, initial norm =      24    824 0.12500E-01 0.18269E-10
(PID.TID 0000.0001)  S/R SEAICE_KRYLOV: Picard iterate / total =     24 /    824, Nb. of FGMRES iterations =      1
(PID.TID 0000.0001)  S/R SEAICE_KRYLOV: Picard iterate / total, KRYLOVgamma_lin, initial norm =      25    825 0.12500E-01 0.91347E-11
(PID.TID 0000.0001)  S/R SEAICE_KRYLOV: Picard iterate / total =     25 /    825, Nb. of FGMRES iterations =      1
(PID.TID 0000.0001)  S/R SEAICE_KRYLOV: Picard iterate / total, KRYLOVgamma_lin, initial norm =      26    826 0.12500E-01 0.45673E-11
(PID.TID 0000.0001)  S/R SEAICE_KRYLOV: Picard iterate / total =     26 /    826, Nb. of FGMRES iterations =      1
(PID.TID 0000.0001)  S/R SEAICE_KRYLOV: Picard iterate / total, KRYLOVgamma_lin, initial norm =      27    827 0.12500E-01 0.22837E-11
(PID.TID 0000.0001)  S/R SEAICE_KRYLOV: Picard iterate / total =     27 /    827, Nb. of FGMRES iterations =      1
(PID.TID 0000.0001)  S/R SEAICE_KRYLOV: Picard iterate / total, KRYLOVgamma_lin, initial norm =      28    828 0.12500E-01 0.11418E-11
(PID.TID 0000.0001)  S/R SEAICE_KRYLOV: Picard iterate / total =     28 /    828, Nb. of FGMRES iterations =      1
(PID.TID 0000.0001)  S/R SEAICE_KRYLOV: Picard iterate / total, KRYLOVgamma_lin, initial norm =      29    829 0.12500E-01 0.57092E-12
(PID.TID 0000.0001)  S/R SEAICE_KRYLOV: Picard iterate / total =     29 /    829, Nb. of FGMRES iterations =      1
(PID.TID 0000.0001)  S/R SEAICE_KRYLOV: Picard iterate / total, KRYLOVgamma_lin, initial norm =      30    830 0.12500E-01 0.28546E-12
(PID.TID 0000.0001)  S/R SEAICE_KRYLOV: Picard iterate / total =     30 /    830, Nb. of FGMRES iterations =      1
(PID.TID 0000.0001)  S/R SEAICE_KRYLOV: Picard iterate / total, KRYLOVgamma_lin, initial norm =      31    831 0.12500E-01 0.14273E-12
(PID.TID 0000.0001)  S/R SEAICE_KRYLOV: Picard iterate / total =     31 /    831, Nb. of FGMRES iterations =      1
(PID.TID 0000.0001)  S/R SEAICE_KRYLOV: Picard iterate / total, KRYLOVgamma_lin, final   norm =      32    832 0.12500E-01 0.71365E-13
(PID.TID 0000.0001)  // =======================================================
(PID.TID 0000.0001)  // Begin KRYLOV statistics
(PID.TID 0000.0001)  // =======================================================
(PID.TID 0000.0001)  %KRYLOV_MON: time step              =          9
(PID.TID 0000.0001)  %KRYLOV_MON: Nb. of time steps      =          1
(PID.TID 0000.0001)  %KRYLOV_MON: Nb. of Picard steps    =         32
(PID.TID 0000.0001)  %KRYLOV_MON: Nb. of Krylov steps    =         31
(PID.TID 0000.0001)  %KRYLOV_MON: Nb. of Picard failures =          0
(PID.TID 0000.0001)  %KRYLOV_MON: Nb. of Krylov failures =          0
(PID.TID 0000.0001)  // =======================================================
(PID.TID 0000.0001)  // End KRYLOV statistics
(PID.TID 0000.0001)  // =======================================================
(PID.TID 0000.0001)  S/R SEAICE_KRYLOV: Total number FGMRES iterations =     31 in timestep          9
(PID.TID 0000.0001) // =======================================================
(PID.TID 0000.0001) // Begin MONITOR dynamic field statistics
(PID.TID 0000.0001) // =======================================================
(PID.TID 0000.0001) %MON time_tsnumber                =                     9
(PID.TID 0000.0001) %MON time_secondsf                =   2.2500000000000E+01
(PID.TID 0000.0001) %MON dynstat_eta_max              =   0.0000000000000E+00
(PID.TID 0000.0001) %MON dynstat_eta_min              =   0.0000000000000E+00
(PID.TID 0000.0001) %MON dynstat_eta_mean             =   0.0000000000000E+00
(PID.TID 0000.0001) %MON dynstat_eta_sd               =   0.0000000000000E+00
(PID.TID 0000.0001) %MON dynstat_eta_del2             =   0.0000000000000E+00
(PID.TID 0000.0001) %MON dynstat_uvel_max             =   9.8437500000000E-03
(PID.TID 0000.0001) %MON dynstat_uvel_min             =  -9.8437500000000E-03
(PID.TID 0000.0001) %MON dynstat_uvel_mean            =   0.0000000000000E+00
(PID.TID 0000.0001) %MON dynstat_uvel_sd              =   5.7727978755972E-03
(PID.TID 0000.0001) %MON dynstat_uvel_del2            =   1.0089048364799E-20
(PID.TID 0000.0001) %MON dynstat_vvel_max             =   9.8437500000000E-03
(PID.TID 0000.0001) %MON dynstat_vvel_min             =  -9.8437500000000E-03
(PID.TID 0000.0001) %MON dynstat_vvel_mean            =   0.0000000000000E+00
(PID.TID 0000.0001) %MON dynstat_vvel_sd              =   5.7727978755972E-03
(PID.TID 0000.0001) %MON dynstat_vvel_del2            =   1.0089048364799E-20
(PID.TID 0000.0001) %MON dynstat_wvel_max             =   1.1914062500000E-05
(PID.TID 0000.0001) %MON dynstat_wvel_min             =  -1.1914062500000E-05
(PID.TID 0000.0001) %MON dynstat_wvel_mean            =   3.4694469519536E-25
(PID.TID 0000.0001) %MON dynstat_wvel_sd              =   1.7200872247780E-06
(PID.TID 0000.0001) %MON dynstat_wvel_del2            =   2.8187489626940E-08
(PID.TID 0000.0001) %MON dynstat_theta_max            =  -1.6200000000000E+00
(PID.TID 0000.0001) %MON dynstat_theta_min            =  -1.6200000000000E+00
(PID.TID 0000.0001) %MON dynstat_theta_mean           =  -1.6200000000000E+00
(PID.TID 0000.0001) %MON dynstat_theta_sd             =   0.0000000000000E+00
(PID.TID 0000.0001) %MON dynstat_theta_del2           =   0.0000000000000E+00
(PID.TID 0000.0001) %MON dynstat_salt_max             =   3.0000000000000E+01
(PID.TID 0000.0001) %MON dynstat_salt_min             =   3.0000000000000E+01
(PID.TID 0000.0001) %MON dynstat_salt_mean            =   3.0000000000000E+01
(PID.TID 0000.0001) %MON dynstat_salt_sd              =   0.0000000000000E+00
(PID.TID 0000.0001) %MON dynstat_salt_del2            =   0.0000000000000E+00
(PID.TID 0000.0001) %MON trAdv_CFL_u_max              =   3.0761718750000E-06
(PID.TID 0000.0001) %MON trAdv_CFL_v_max              =   3.0761718750000E-06
(PID.TID 0000.0001) %MON trAdv_CFL_w_max              =   2.9785156250000E-06
(PID.TID 0000.0001) %MON advcfl_uvel_max              =   3.0761718750000E-06
(PID.TID 0000.0001) %MON advcfl_vvel_max              =   3.0761718750000E-06
(PID.TID 0000.0001) %MON advcfl_wvel_max              =   5.9570312500000E-06
(PID.TID 0000.0001) %MON advcfl_W_hf_max              =   0.0000000000000E+00
(PID.TID 0000.0001) %MON pe_b_mean                    =   0.0000000000000E+00
(PID.TID 0000.0001) %MON ke_max                       =   9.0844726562500E-05
(PID.TID 0000.0001) %MON ke_mean                      =   3.2804489135742E-05
(PID.TID 0000.0001) %MON ke_vol                       =   2.6214400000000E+12
(PID.TID 0000.0001) %MON vort_r_min                   =  -7.8125000000000E-08
(PID.TID 0000.0001) %MON vort_r_max                   =   1.2304687500000E-06
(PID.TID 0000.0001) %MON vort_a_mean                  =   1.4856000000000E-04
(PID.TID 0000.0001) %MON vort_a_sd                    =   1.5312918562496E-06
(PID.TID 0000.0001) %MON vort_p_mean                  =   1.5552375000000E-04
(PID.TID 0000.0001) %MON vort_p_sd                    =   5.5921473110222E-05
(PID.TID 0000.0001) %MON surfExpan_theta_mean         =   0.0000000000000E+00
(PID.TID 0000.0001) %MON surfExpan_salt_mean          =   1.3877787807814E-23
(PID.TID 0000.0001) // =======================================================
(PID.TID 0000.0001) // End MONITOR dynamic field statistics
(PID.TID 0000.0001) // =======================================================
(PID.TID 0000.0001) // =======================================================
(PID.TID 0000.0001) // Begin MONITOR SEAICE statistics
(PID.TID 0000.0001) // =======================================================
(PID.TID 0000.0001) %MON seaice_tsnumber              =                     9
(PID.TID 0000.0001) %MON seaice_time_sec              =   2.2500000000000E+01
(PID.TID 0000.0001) %MON seaice_uice_max              =   1.5524278056650E-02
(PID.TID 0000.0001) %MON seaice_uice_min              =  -1.5854780109661E-02
(PID.TID 0000.0001) %MON seaice_uice_mean             =  -4.2440946368134E-07
(PID.TID 0000.0001) %MON seaice_uice_sd               =   6.6907797978474E-03
(PID.TID 0000.0001) %MON seaice_uice_del2             =   2.0995747286812E-06
(PID.TID 0000.0001) %MON seaice_vice_max              =   1.5163570093507E-02
(PID.TID 0000.0001) %MON seaice_vice_min              =  -1.5344737653287E-02
(PID.TID 0000.0001) %MON seaice_vice_mean             =   1.6973176005651E-06
(PID.TID 0000.0001) %MON seaice_vice_sd               =   6.6585354733729E-03
(PID.TID 0000.0001) %MON seaice_vice_del2             =   2.1052202775189E-06
(PID.TID 0000.0001) %MON seaice_area_max              =   1.0000000000000E+00
(PID.TID 0000.0001) %MON seaice_area_min              =   9.9999687753907E-01
(PID.TID 0000.0001) %MON seaice_area_mean             =   9.9999981193260E-01
(PID.TID 0000.0001) %MON seaice_area_sd               =   4.2522923528874E-07
(PID.TID 0000.0001) %MON seaice_area_del2             =   5.0004327083376E-09
(PID.TID 0000.0001) %MON seaice_heff_max              =   3.0999862320317E-01
(PID.TID 0000.0001) %MON seaice_heff_min              =   2.9006051436855E-01
(PID.TID 0000.0001) %MON seaice_heff_mean             =   3.0067126525963E-01
(PID.TID 0000.0001) %MON seaice_heff_sd               =   5.0069237626429E-03
(PID.TID 0000.0001) %MON seaice_heff_del2             =   1.2853743512479E-05
(PID.TID 0000.0001) %MON seaice_hsnow_max             =   0.0000000000000E+00
(PID.TID 0000.0001) %MON seaice_hsnow_min             =   0.0000000000000E+00
(PID.TID 0000.0001) %MON seaice_hsnow_mean            =   0.0000000000000E+00
(PID.TID 0000.0001) %MON seaice_hsnow_sd              =   0.0000000000000E+00
(PID.TID 0000.0001) %MON seaice_hsnow_del2            =   0.0000000000000E+00
(PID.TID 0000.0001) // =======================================================
(PID.TID 0000.0001) // End MONITOR SEAICE statistics
(PID.TID 0000.0001) // =======================================================
 Computing Diagnostic #    163  SIuice       Counter:       1   Parms: UU      M1      
           Vector  Mate for  SIuice       Diagnostic #    164  SIvice   exists 
 Computing Diagnostic #    164  SIvice       Counter:       1   Parms: VV      M1      
           Vector  Mate for  SIvice       Diagnostic #    163  SIuice   exists 
 Computing Diagnostic #    149  SIheff       Counter:       1   Parms: SM      M1      
 Computing Diagnostic #    146  SIarea       Counter:       1   Parms: SM      M1      
 Computing Diagnostic #    228  SIshear      Counter:       1   Parms: SM      M1      
 Computing Diagnostic #    233  SIcohes      Counter:       1   Parms: SM      M1      
 Computing Diagnostic #    221  SIsig1       Counter:       1   Parms: SM      M1      
 Computing Diagnostic #    222  SIsig2       Counter:       1   Parms: SM      M1      
 Computing Diagnostic #    231  SIdamage     Counter:       1   Parms: SM      M1      
 Computing Diagnostic #    165  SItaux       Counter:       1   Parms: UU      U1      
           Vector  Mate for  SItaux       Diagnostic #    166  SItauy   exists 
 Computing Diagnostic #    166  SItauy       Counter:       1   Parms: VV      U1      
           Vector  Mate for  SItauy       Diagnostic #    165  SItaux   exists 
 Computing Diagnostic #    133  EXFuwind     Counter:       1   Parms: UM      U1      
 Computing Diagnostic #    134  EXFvwind     Counter:       1   Parms: VM      U1      
(PID.TID 0000.0001)  S/R SEAICE_KRYLOV: Picard iterate / total, KRYLOVgamma_lin, initial norm =       1    901 0.10000E+00 0.11031E+00
(PID.TID 0000.0001)  S/R SEAICE_KRYLOV: Picard iterate / total =      1 /    901, Nb. of FGMRES iterations =      1
(PID.TID 0000.0001)  S/R SEAICE_KRYLOV: Picard iterate / total, KRYLOVgamma_lin, initial norm =       2    902 0.50000E-01 0.20055E-03
(PID.TID 0000.0001)  S/R SEAICE_KRYLOV: Picard iterate / total =      2 /    902, Nb. of FGMRES iterations =      1
(PID.TID 0000.0001)  S/R SEAICE_KRYLOV: Picard iterate / total, KRYLOVgamma_lin, initial norm =       3    903 0.50000E-01 0.25831E-04
(PID.TID 0000.0001)  S/R SEAICE_KRYLOV: Picard iterate / total =      3 /    903, Nb. of FGMRES iterations =      1
(PID.TID 0000.0001)  S/R SEAICE_KRYLOV: Picard iterate / total, KRYLOVgamma_lin, initial norm =       4    904 0.33333E-01 0.17289E-04
(PID.TID 0000.0001)  S/R SEAICE_KRYLOV: Picard iterate / total =      4 /    904, Nb. of FGMRES iterations =      1
(PID.TID 0000.0001)  S/R SEAICE_KRYLOV: Picard iterate / total, KRYLOVgamma_lin, initial norm =       5    905 0.33333E-01 0.82594E-05
(PID.TID 0000.0001)  S/R SEAICE_KRYLOV: Picard iterate / total =      5 /    905, Nb. of FGMRES iterations =      1
(PID.TID 0000.0001)  S/R SEAICE_KRYLOV: Picard iterate / total, KRYLOVgamma_lin, initial norm =       6    906 0.33333E-01 0.41597E-05
(PID.TID 0000.0001)  S/R SEAICE_KRYLOV: Picard iterate / total =      6 /    906, Nb. of FGMRES iterations =      1
(PID.TID 0000.0001)  S/R SEAICE_KRYLOV: Picard iterate / total, KRYLOVgamma_lin, initial norm =       7    907 0.33333E-01 0.20774E-05
(PID.TID 0000.0001)  S/R SEAICE_KRYLOV: Picard iterate / total =      7 /    907, Nb. of FGMRES iterations =      1
(PID.TID 0000.0001)  S/R SEAICE_KRYLOV: Picard iterate / total, KRYLOVgamma_lin, initial norm =       8    908 0.25000E-01 0.10389E-05
(PID.TID 0000.0001)  S/R SEAICE_KRYLOV: Picard iterate / total =      8 /    908, Nb. of FGMRES iterations =      1
(PID.TID 0000.0001)  S/R SEAICE_KRYLOV: Picard iterate / total, KRYLOVgamma_lin, initial norm =       9    909 0.20000E-01 0.51944E-06
(PID.TID 0000.0001)  S/R SEAICE_KRYLOV: Picard iterate / total =      9 /    909, Nb. of FGMRES iterations =      1
(PID.TID 0000.0001)  S/R SEAICE_KRYLOV: Picard iterate / total, KRYLOVgamma_lin, initial norm =      10    910 0.12500E-01 0.25972E-06
(PID.TID 0000.0001)  S/R SEAICE_KRYLOV: Picard iterate / total =     10 /    910, Nb. of FGMRES iterations =      1
(PID.TID 0000.0001)  S/R SEAICE_KRYLOV: Picard iterate / total, KRYLOVgamma_lin, initial norm =      11    911 0.12500E-01 0.12986E-06
(PID.TID 0000.0001)  S/R SEAICE_KRYLOV: Picard iterate / total =     11 /    911, Nb. of FGMRES iterations =      1
(PID.TID 0000.0001)  S/R SEAICE_KRYLOV: Picard iterate / total, KRYLOVgamma_lin, initial norm =      12    912 0.12500E-01 0.64931E-07
(PID.TID 0000.0001)  S/R SEAICE_KRYLOV: Picard iterate / total =     12 /    912, Nb. of FGMRES iterations =      1
(PID.TID 0000.0001)  S/R SEAICE_KRYLOV: Picard iterate / total, KRYLOVgamma_lin, initial norm =      13    913 0.12500E-01 0.32465E-07
(PID.TID 0000.0001)  S/R SEAICE_KRYLOV: Picard iterate / total =     13 /    913, Nb. of FGMRES iterations =      1
(PID.TID 0000.0001)  S/R SEAICE_KRYLOV: Picard iterate / total, KRYLOVgamma_lin, initial norm =      14    914 0.12500E-01 0.16233E-07
(PID.TID 0000.0001)  S/R SEAICE_KRYLOV: Picard iterate / total =     14 /    914, Nb. of FGMRES iterations =      1
(PID.TID 0000.0001)  S/R SEAICE_KRYLOV: Picard iterate / total, KRYLOVgamma_lin, initial norm =      15    915 0.12500E-01 0.81163E-08
(PID.TID 0000.0001)  S/R SEAICE_KRYLOV: Picard iterate / total =     15 /    915, Nb. of FGMRES iterations =      1
(PID.TID 0000.0001)  S/R SEAICE_KRYLOV: Picard iterate / total, KRYLOVgamma_lin, initial norm =      16    916 0.12500E-01 0.40582E-08
(PID.TID 0000.0001)  S/R SEAICE_KRYLOV: Picard iterate / total =     16 /    916, Nb. of FGMRES iterations =      1
(PID.TID 0000.0001)  S/R SEAICE_KRYLOV: Picard iterate / total, KRYLOVgamma_lin, initial norm =      17    917 0.12500E-01 0.20291E-08
(PID.TID 0000.0001)  S/R SEAICE_KRYLOV: Picard iterate / total =     17 /    917, Nb. of FGMRES iterations =      1
(PID.TID 0000.0001)  S/R SEAICE_KRYLOV: Picard iterate / total, KRYLOVgamma_lin, initial norm =      18    918 0.12500E-01 0.10145E-08
(PID.TID 0000.0001)  S/R SEAICE_KRYLOV: Picard iterate / total =     18 /    918, Nb. of FGMRES iterations =      1
(PID.TID 0000.0001)  S/R SEAICE_KRYLOV: Picard iterate / total, KRYLOVgamma_lin, initial norm =      19    919 0.12500E-01 0.50727E-09
(PID.TID 0000.0001)  S/R SEAICE_KRYLOV: Picard iterate / total =     19 /    919, Nb. of FGMRES iterations =      1
(PID.TID 0000.0001)  S/R SEAICE_KRYLOV: Picard iterate / total, KRYLOVgamma_lin, initial norm =      20    920 0.12500E-01 0.25364E-09
(PID.TID 0000.0001)  S/R SEAICE_KRYLOV: Picard iterate / total =     20 /    920, Nb. of FGMRES iterations =      1
(PID.TID 0000.0001)  S/R SEAICE_KRYLOV: Picard iterate / total, KRYLOVgamma_lin, initial norm =      21    921 0.12500E-01 0.12682E-09
(PID.TID 0000.0001)  S/R SEAICE_KRYLOV: Picard iterate / total =     21 /    921, Nb. of FGMRES iterations =      1
(PID.TID 0000.0001)  S/R SEAICE_KRYLOV: Picard iterate / total, KRYLOVgamma_lin, initial norm =      22    922 0.12500E-01 0.63409E-10
(PID.TID 0000.0001)  S/R SEAICE_KRYLOV: Picard iterate / total =     22 /    922, Nb. of FGMRES iterations =      1
(PID.TID 0000.0001)  S/R SEAICE_KRYLOV: Picard iterate / total, KRYLOVgamma_lin, initial norm =      23    923 0.12500E-01 0.31704E-10
(PID.TID 0000.0001)  S/R SEAICE_KRYLOV: Picard iterate / total =     23 /    923, Nb. of FGMRES iterations =      1
(PID.TID 0000.0001)  S/R SEAICE_KRYLOV: Picard iterate / total, KRYLOVgamma_lin, initial norm =      24    924 0.12500E-01 0.15852E-10
(PID.TID 0000.0001)  S/R SEAICE_KRYLOV: Picard iterate / total =     24 /    924, Nb. of FGMRES iterations =      1
(PID.TID 0000.0001)  S/R SEAICE_KRYLOV: Picard iterate / total, KRYLOVgamma_lin, initial norm =      25    925 0.12500E-01 0.79261E-11
(PID.TID 0000.0001)  S/R SEAICE_KRYLOV: Picard iterate / total =     25 /    925, Nb. of FGMRES iterations =      1
(PID.TID 0000.0001)  S/R SEAICE_KRYLOV: Picard iterate / total, KRYLOVgamma_lin, initial norm =      26    926 0.12500E-01 0.39631E-11
(PID.TID 0000.0001)  S/R SEAICE_KRYLOV: Picard iterate / total =     26 /    926, Nb. of FGMRES iterations =      1
(PID.TID 0000.0001)  S/R SEAICE_KRYLOV: Picard iterate / total, KRYLOVgamma_lin, initial norm =      27    927 0.12500E-01 0.19815E-11
(PID.TID 0000.0001)  S/R SEAICE_KRYLOV: Picard iterate / total =     27 /    927, Nb. of FGMRES iterations =      1
(PID.TID 0000.0001)  S/R SEAICE_KRYLOV: Picard iterate / total, KRYLOVgamma_lin, initial norm =      28    928 0.12500E-01 0.99076E-12
(PID.TID 0000.0001)  S/R SEAICE_KRYLOV: Picard iterate / total =     28 /    928, Nb. of FGMRES iterations =      1
(PID.TID 0000.0001)  S/R SEAICE_KRYLOV: Picard iterate / total, KRYLOVgamma_lin, initial norm =      29    929 0.12500E-01 0.49538E-12
(PID.TID 0000.0001)  S/R SEAICE_KRYLOV: Picard iterate / total =     29 /    929, Nb. of FGMRES iterations =      1
(PID.TID 0000.0001)  S/R SEAICE_KRYLOV: Picard iterate / total, KRYLOVgamma_lin, initial norm =      30    930 0.12500E-01 0.24769E-12
(PID.TID 0000.0001)  S/R SEAICE_KRYLOV: Picard iterate / total =     30 /    930, Nb. of FGMRES iterations =      1
(PID.TID 0000.0001)  S/R SEAICE_KRYLOV: Picard iterate / total, KRYLOVgamma_lin, initial norm =      31    931 0.12500E-01 0.12384E-12
(PID.TID 0000.0001)  S/R SEAICE_KRYLOV: Picard iterate / total =     31 /    931, Nb. of FGMRES iterations =      1
(PID.TID 0000.0001)  S/R SEAICE_KRYLOV: Picard iterate / total, KRYLOVgamma_lin, final   norm =      32    932 0.12500E-01 0.61925E-13
(PID.TID 0000.0001)  // =======================================================
(PID.TID 0000.0001)  // Begin KRYLOV statistics
(PID.TID 0000.0001)  // =======================================================
(PID.TID 0000.0001)  %KRYLOV_MON: time step              =         10
(PID.TID 0000.0001)  %KRYLOV_MON: Nb. of time steps      =          1
(PID.TID 0000.0001)  %KRYLOV_MON: Nb. of Picard steps    =         32
(PID.TID 0000.0001)  %KRYLOV_MON: Nb. of Krylov steps    =         31
(PID.TID 0000.0001)  %KRYLOV_MON: Nb. of Picard failures =          0
(PID.TID 0000.0001)  %KRYLOV_MON: Nb. of Krylov failures =          0
(PID.TID 0000.0001)  // =======================================================
(PID.TID 0000.0001)  // End KRYLOV statistics
(PID.TID 0000.0001)  // =======================================================
(PID.TID 0000.0001)  S/R SEAICE_KRYLOV: Total number FGMRES iterations =     31 in timestep         10
(PID.TID 0000.0001) // =======================================================
(PID.TID 0000.0001) // Begin MONITOR dynamic field statistics
(PID.TID 0000.0001) // =======================================================
(PID.TID 0000.0001) %MON time_tsnumber                =                    10
(PID.TID 0000.0001) %MON time_secondsf                =   2.5000000000000E+01
(PID.TID 0000.0001) %MON dynstat_eta_max              =   0.0000000000000E+00
(PID.TID 0000.0001) %MON dynstat_eta_min              =   0.0000000000000E+00
(PID.TID 0000.0001) %MON dynstat_eta_mean             =   0.0000000000000E+00
(PID.TID 0000.0001) %MON dynstat_eta_sd               =   0.0000000000000E+00
(PID.TID 0000.0001) %MON dynstat_eta_del2             =   0.0000000000000E+00
(PID.TID 0000.0001) %MON dynstat_uvel_max             =   9.8437500000000E-03
(PID.TID 0000.0001) %MON dynstat_uvel_min             =  -9.8437500000000E-03
(PID.TID 0000.0001) %MON dynstat_uvel_mean            =   0.0000000000000E+00
(PID.TID 0000.0001) %MON dynstat_uvel_sd              =   5.7727978755972E-03
(PID.TID 0000.0001) %MON dynstat_uvel_del2            =   1.0089048364799E-20
(PID.TID 0000.0001) %MON dynstat_vvel_max             =   9.8437500000000E-03
(PID.TID 0000.0001) %MON dynstat_vvel_min             =  -9.8437500000000E-03
(PID.TID 0000.0001) %MON dynstat_vvel_mean            =   0.0000000000000E+00
(PID.TID 0000.0001) %MON dynstat_vvel_sd              =   5.7727978755972E-03
(PID.TID 0000.0001) %MON dynstat_vvel_del2            =   1.0089048364799E-20
(PID.TID 0000.0001) %MON dynstat_wvel_max             =   1.1914062500000E-05
(PID.TID 0000.0001) %MON dynstat_wvel_min             =  -1.1914062500000E-05
(PID.TID 0000.0001) %MON dynstat_wvel_mean            =   3.4694469519536E-25
(PID.TID 0000.0001) %MON dynstat_wvel_sd              =   1.7200872247780E-06
(PID.TID 0000.0001) %MON dynstat_wvel_del2            =   2.8187489626940E-08
(PID.TID 0000.0001) %MON dynstat_theta_max            =  -1.6200000000000E+00
(PID.TID 0000.0001) %MON dynstat_theta_min            =  -1.6200000000000E+00
(PID.TID 0000.0001) %MON dynstat_theta_mean           =  -1.6200000000000E+00
(PID.TID 0000.0001) %MON dynstat_theta_sd             =   0.0000000000000E+00
(PID.TID 0000.0001) %MON dynstat_theta_del2           =   0.0000000000000E+00
(PID.TID 0000.0001) %MON dynstat_salt_max             =   3.0000000000000E+01
(PID.TID 0000.0001) %MON dynstat_salt_min             =   3.0000000000000E+01
(PID.TID 0000.0001) %MON dynstat_salt_mean            =   3.0000000000000E+01
(PID.TID 0000.0001) %MON dynstat_salt_sd              =   0.0000000000000E+00
(PID.TID 0000.0001) %MON dynstat_salt_del2            =   0.0000000000000E+00
(PID.TID 0000.0001) %MON trAdv_CFL_u_max              =   3.0761718750000E-06
(PID.TID 0000.0001) %MON trAdv_CFL_v_max              =   3.0761718750000E-06
(PID.TID 0000.0001) %MON trAdv_CFL_w_max              =   2.9785156250000E-06
(PID.TID 0000.0001) %MON advcfl_uvel_max              =   3.0761718750000E-06
(PID.TID 0000.0001) %MON advcfl_vvel_max              =   3.0761718750000E-06
(PID.TID 0000.0001) %MON advcfl_wvel_max              =   5.9570312500000E-06
(PID.TID 0000.0001) %MON advcfl_W_hf_max              =   0.0000000000000E+00
(PID.TID 0000.0001) %MON pe_b_mean                    =   0.0000000000000E+00
(PID.TID 0000.0001) %MON ke_max                       =   9.0844726562500E-05
(PID.TID 0000.0001) %MON ke_mean                      =   3.2804489135742E-05
(PID.TID 0000.0001) %MON ke_vol                       =   2.6214400000000E+12
(PID.TID 0000.0001) %MON vort_r_min                   =  -7.8125000000000E-08
(PID.TID 0000.0001) %MON vort_r_max                   =   1.2304687500000E-06
(PID.TID 0000.0001) %MON vort_a_mean                  =   1.4856000000000E-04
(PID.TID 0000.0001) %MON vort_a_sd                    =   1.5312918562496E-06
(PID.TID 0000.0001) %MON vort_p_mean                  =   1.5552375000000E-04
(PID.TID 0000.0001) %MON vort_p_sd                    =   5.5921473110222E-05
(PID.TID 0000.0001) %MON surfExpan_theta_mean         =   0.0000000000000E+00
(PID.TID 0000.0001) %MON surfExpan_salt_mean          =   1.3877787807814E-23
(PID.TID 0000.0001) // =======================================================
(PID.TID 0000.0001) // End MONITOR dynamic field statistics
(PID.TID 0000.0001) // =======================================================
(PID.TID 0000.0001) // =======================================================
(PID.TID 0000.0001) // Begin MONITOR SEAICE statistics
(PID.TID 0000.0001) // =======================================================
(PID.TID 0000.0001) %MON seaice_tsnumber              =                    10
(PID.TID 0000.0001) %MON seaice_time_sec              =   2.5000000000000E+01
(PID.TID 0000.0001) %MON seaice_uice_max              =   1.7212288351921E-02
(PID.TID 0000.0001) %MON seaice_uice_min              =  -1.7579289906245E-02
(PID.TID 0000.0001) %MON seaice_uice_mean             =  -4.9124065694394E-07
(PID.TID 0000.0001) %MON seaice_uice_sd               =   7.4199438689171E-03
(PID.TID 0000.0001) %MON seaice_uice_del2             =   2.3450892830874E-06
(PID.TID 0000.0001) %MON seaice_vice_max              =   1.6819211753792E-02
(PID.TID 0000.0001) %MON seaice_vice_min              =  -1.7016694711050E-02
(PID.TID 0000.0001) %MON seaice_vice_mean             =   1.8933749848946E-06
(PID.TID 0000.0001) %MON seaice_vice_sd               =   7.3843741074827E-03
(PID.TID 0000.0001) %MON seaice_vice_del2             =   2.3529554480124E-06
(PID.TID 0000.0001) %MON seaice_area_max              =   1.0000000000000E+00
(PID.TID 0000.0001) %MON seaice_area_min              =   9.9999617170169E-01
(PID.TID 0000.0001) %MON seaice_area_mean             =   9.9999977090719E-01
(PID.TID 0000.0001) %MON seaice_area_sd               =   5.2166321723926E-07
(PID.TID 0000.0001) %MON seaice_area_del2             =   6.2827512749329E-09
(PID.TID 0000.0001) %MON seaice_heff_max              =   3.0999861229481E-01
(PID.TID 0000.0001) %MON seaice_heff_min              =   2.9006050302479E-01
(PID.TID 0000.0001) %MON seaice_heff_mean             =   3.0067126525963E-01
(PID.TID 0000.0001) %MON seaice_heff_sd               =   5.0069241178520E-03
(PID.TID 0000.0001) %MON seaice_heff_del2             =   1.2853741370189E-05
(PID.TID 0000.0001) %MON seaice_hsnow_max             =   0.0000000000000E+00
(PID.TID 0000.0001) %MON seaice_hsnow_min             =   0.0000000000000E+00
(PID.TID 0000.0001) %MON seaice_hsnow_mean            =   0.0000000000000E+00
(PID.TID 0000.0001) %MON seaice_hsnow_sd              =   0.0000000000000E+00
(PID.TID 0000.0001) %MON seaice_hsnow_del2            =   0.0000000000000E+00
(PID.TID 0000.0001) // =======================================================
(PID.TID 0000.0001) // End MONITOR SEAICE statistics
(PID.TID 0000.0001) // =======================================================
 Computing Diagnostic #    163  SIuice       Counter:       1   Parms: UU      M1      
           Vector  Mate for  SIuice       Diagnostic #    164  SIvice   exists 
 Computing Diagnostic #    164  SIvice       Counter:       1   Parms: VV      M1      
           Vector  Mate for  SIvice       Diagnostic #    163  SIuice   exists 
 Computing Diagnostic #    149  SIheff       Counter:       1   Parms: SM      M1      
 Computing Diagnostic #    146  SIarea       Counter:       1   Parms: SM      M1      
 Computing Diagnostic #    228  SIshear      Counter:       1   Parms: SM      M1      
 Computing Diagnostic #    233  SIcohes      Counter:       1   Parms: SM      M1      
 Computing Diagnostic #    221  SIsig1       Counter:       1   Parms: SM      M1      
 Computing Diagnostic #    222  SIsig2       Counter:       1   Parms: SM      M1      
 Computing Diagnostic #    231  SIdamage     Counter:       1   Parms: SM      M1      
 Computing Diagnostic #    165  SItaux       Counter:       1   Parms: UU      U1      
           Vector  Mate for  SItaux       Diagnostic #    166  SItauy   exists 
 Computing Diagnostic #    166  SItauy       Counter:       1   Parms: VV      U1      
           Vector  Mate for  SItauy       Diagnostic #    165  SItaux   exists 
 Computing Diagnostic #    133  EXFuwind     Counter:       1   Parms: UM      U1      
 Computing Diagnostic #    134  EXFvwind     Counter:       1   Parms: VM      U1      
(PID.TID 0000.0001)  S/R SEAICE_KRYLOV: Picard iterate / total, KRYLOVgamma_lin, initial norm =       1   1001 0.10000E+00 0.10992E+00
(PID.TID 0000.0001)  S/R SEAICE_KRYLOV: Picard iterate / total =      1 /   1001, Nb. of FGMRES iterations =      1
(PID.TID 0000.0001)  S/R SEAICE_KRYLOV: Picard iterate / total, KRYLOVgamma_lin, initial norm =       2   1002 0.50000E-01 0.18520E-03
(PID.TID 0000.0001)  S/R SEAICE_KRYLOV: Picard iterate / total =      2 /   1002, Nb. of FGMRES iterations =      1
(PID.TID 0000.0001)  S/R SEAICE_KRYLOV: Picard iterate / total, KRYLOVgamma_lin, initial norm =       3   1003 0.50000E-01 0.22005E-04
(PID.TID 0000.0001)  S/R SEAICE_KRYLOV: Picard iterate / total =      3 /   1003, Nb. of FGMRES iterations =      1
(PID.TID 0000.0001)  S/R SEAICE_KRYLOV: Picard iterate / total, KRYLOVgamma_lin, initial norm =       4   1004 0.33333E-01 0.15037E-04
(PID.TID 0000.0001)  S/R SEAICE_KRYLOV: Picard iterate / total =      4 /   1004, Nb. of FGMRES iterations =      1
(PID.TID 0000.0001)  S/R SEAICE_KRYLOV: Picard iterate / total, KRYLOVgamma_lin, initial norm =       5   1005 0.33333E-01 0.71629E-05
(PID.TID 0000.0001)  S/R SEAICE_KRYLOV: Picard iterate / total =      5 /   1005, Nb. of FGMRES iterations =      1
(PID.TID 0000.0001)  S/R SEAICE_KRYLOV: Picard iterate / total, KRYLOVgamma_lin, initial norm =       6   1006 0.33333E-01 0.36088E-05
(PID.TID 0000.0001)  S/R SEAICE_KRYLOV: Picard iterate / total =      6 /   1006, Nb. of FGMRES iterations =      1
(PID.TID 0000.0001)  S/R SEAICE_KRYLOV: Picard iterate / total, KRYLOVgamma_lin, initial norm =       7   1007 0.33333E-01 0.18022E-05
(PID.TID 0000.0001)  S/R SEAICE_KRYLOV: Picard iterate / total =      7 /   1007, Nb. of FGMRES iterations =      1
(PID.TID 0000.0001)  S/R SEAICE_KRYLOV: Picard iterate / total, KRYLOVgamma_lin, initial norm =       8   1008 0.25000E-01 0.90129E-06
(PID.TID 0000.0001)  S/R SEAICE_KRYLOV: Picard iterate / total =      8 /   1008, Nb. of FGMRES iterations =      1
(PID.TID 0000.0001)  S/R SEAICE_KRYLOV: Picard iterate / total, KRYLOVgamma_lin, initial norm =       9   1009 0.20000E-01 0.45063E-06
(PID.TID 0000.0001)  S/R SEAICE_KRYLOV: Picard iterate / total =      9 /   1009, Nb. of FGMRES iterations =      1
(PID.TID 0000.0001)  S/R SEAICE_KRYLOV: Picard iterate / total, KRYLOVgamma_lin, initial norm =      10   1010 0.12500E-01 0.22532E-06
(PID.TID 0000.0001)  S/R SEAICE_KRYLOV: Picard iterate / total =     10 /   1010, Nb. of FGMRES iterations =      1
(PID.TID 0000.0001)  S/R SEAICE_KRYLOV: Picard iterate / total, KRYLOVgamma_lin, initial norm =      11   1011 0.12500E-01 0.11266E-06
(PID.TID 0000.0001)  S/R SEAICE_KRYLOV: Picard iterate / total =     11 /   1011, Nb. of FGMRES iterations =      1
(PID.TID 0000.0001)  S/R SEAICE_KRYLOV: Picard iterate / total, KRYLOVgamma_lin, initial norm =      12   1012 0.12500E-01 0.56329E-07
(PID.TID 0000.0001)  S/R SEAICE_KRYLOV: Picard iterate / total =     12 /   1012, Nb. of FGMRES iterations =      1
(PID.TID 0000.0001)  S/R SEAICE_KRYLOV: Picard iterate / total, KRYLOVgamma_lin, initial norm =      13   1013 0.12500E-01 0.28165E-07
(PID.TID 0000.0001)  S/R SEAICE_KRYLOV: Picard iterate / total =     13 /   1013, Nb. of FGMRES iterations =      1
(PID.TID 0000.0001)  S/R SEAICE_KRYLOV: Picard iterate / total, KRYLOVgamma_lin, initial norm =      14   1014 0.12500E-01 0.14082E-07
(PID.TID 0000.0001)  S/R SEAICE_KRYLOV: Picard iterate / total =     14 /   1014, Nb. of FGMRES iterations =      1
(PID.TID 0000.0001)  S/R SEAICE_KRYLOV: Picard iterate / total, KRYLOVgamma_lin, initial norm =      15   1015 0.12500E-01 0.70412E-08
(PID.TID 0000.0001)  S/R SEAICE_KRYLOV: Picard iterate / total =     15 /   1015, Nb. of FGMRES iterations =      1
(PID.TID 0000.0001)  S/R SEAICE_KRYLOV: Picard iterate / total, KRYLOVgamma_lin, initial norm =      16   1016 0.12500E-01 0.35206E-08
(PID.TID 0000.0001)  S/R SEAICE_KRYLOV: Picard iterate / total =     16 /   1016, Nb. of FGMRES iterations =      1
(PID.TID 0000.0001)  S/R SEAICE_KRYLOV: Picard iterate / total, KRYLOVgamma_lin, initial norm =      17   1017 0.12500E-01 0.17603E-08
(PID.TID 0000.0001)  S/R SEAICE_KRYLOV: Picard iterate / total =     17 /   1017, Nb. of FGMRES iterations =      1
(PID.TID 0000.0001)  S/R SEAICE_KRYLOV: Picard iterate / total, KRYLOVgamma_lin, initial norm =      18   1018 0.12500E-01 0.88015E-09
(PID.TID 0000.0001)  S/R SEAICE_KRYLOV: Picard iterate / total =     18 /   1018, Nb. of FGMRES iterations =      1
(PID.TID 0000.0001)  S/R SEAICE_KRYLOV: Picard iterate / total, KRYLOVgamma_lin, initial norm =      19   1019 0.12500E-01 0.44007E-09
(PID.TID 0000.0001)  S/R SEAICE_KRYLOV: Picard iterate / total =     19 /   1019, Nb. of FGMRES iterations =      1
(PID.TID 0000.0001)  S/R SEAICE_KRYLOV: Picard iterate / total, KRYLOVgamma_lin, initial norm =      20   1020 0.12500E-01 0.22004E-09
(PID.TID 0000.0001)  S/R SEAICE_KRYLOV: Picard iterate / total =     20 /   1020, Nb. of FGMRES iterations =      1
(PID.TID 0000.0001)  S/R SEAICE_KRYLOV: Picard iterate / total, KRYLOVgamma_lin, initial norm =      21   1021 0.12500E-01 0.11002E-09
(PID.TID 0000.0001)  S/R SEAICE_KRYLOV: Picard iterate / total =     21 /   1021, Nb. of FGMRES iterations =      1
(PID.TID 0000.0001)  S/R SEAICE_KRYLOV: Picard iterate / total, KRYLOVgamma_lin, initial norm =      22   1022 0.12500E-01 0.55009E-10
(PID.TID 0000.0001)  S/R SEAICE_KRYLOV: Picard iterate / total =     22 /   1022, Nb. of FGMRES iterations =      1
(PID.TID 0000.0001)  S/R SEAICE_KRYLOV: Picard iterate / total, KRYLOVgamma_lin, initial norm =      23   1023 0.12500E-01 0.27505E-10
(PID.TID 0000.0001)  S/R SEAICE_KRYLOV: Picard iterate / total =     23 /   1023, Nb. of FGMRES iterations =      1
(PID.TID 0000.0001)  S/R SEAICE_KRYLOV: Picard iterate / total, KRYLOVgamma_lin, initial norm =      24   1024 0.12500E-01 0.13752E-10
(PID.TID 0000.0001)  S/R SEAICE_KRYLOV: Picard iterate / total =     24 /   1024, Nb. of FGMRES iterations =      1
(PID.TID 0000.0001)  S/R SEAICE_KRYLOV: Picard iterate / total, KRYLOVgamma_lin, initial norm =      25   1025 0.12500E-01 0.68761E-11
(PID.TID 0000.0001)  S/R SEAICE_KRYLOV: Picard iterate / total =     25 /   1025, Nb. of FGMRES iterations =      1
(PID.TID 0000.0001)  S/R SEAICE_KRYLOV: Picard iterate / total, KRYLOVgamma_lin, initial norm =      26   1026 0.12500E-01 0.34381E-11
(PID.TID 0000.0001)  S/R SEAICE_KRYLOV: Picard iterate / total =     26 /   1026, Nb. of FGMRES iterations =      1
(PID.TID 0000.0001)  S/R SEAICE_KRYLOV: Picard iterate / total, KRYLOVgamma_lin, initial norm =      27   1027 0.12500E-01 0.17190E-11
(PID.TID 0000.0001)  S/R SEAICE_KRYLOV: Picard iterate / total =     27 /   1027, Nb. of FGMRES iterations =      1
(PID.TID 0000.0001)  S/R SEAICE_KRYLOV: Picard iterate / total, KRYLOVgamma_lin, initial norm =      28   1028 0.12500E-01 0.85952E-12
(PID.TID 0000.0001)  S/R SEAICE_KRYLOV: Picard iterate / total =     28 /   1028, Nb. of FGMRES iterations =      1
(PID.TID 0000.0001)  S/R SEAICE_KRYLOV: Picard iterate / total, KRYLOVgamma_lin, initial norm =      29   1029 0.12500E-01 0.42976E-12
(PID.TID 0000.0001)  S/R SEAICE_KRYLOV: Picard iterate / total =     29 /   1029, Nb. of FGMRES iterations =      1
(PID.TID 0000.0001)  S/R SEAICE_KRYLOV: Picard iterate / total, KRYLOVgamma_lin, initial norm =      30   1030 0.12500E-01 0.21488E-12
(PID.TID 0000.0001)  S/R SEAICE_KRYLOV: Picard iterate / total =     30 /   1030, Nb. of FGMRES iterations =      1
(PID.TID 0000.0001)  S/R SEAICE_KRYLOV: Picard iterate / total, KRYLOVgamma_lin, final   norm =      31   1031 0.12500E-01 0.10744E-12
(PID.TID 0000.0001)  // =======================================================
(PID.TID 0000.0001)  // Begin KRYLOV statistics
(PID.TID 0000.0001)  // =======================================================
(PID.TID 0000.0001)  %KRYLOV_MON: time step              =         11
(PID.TID 0000.0001)  %KRYLOV_MON: Nb. of time steps      =          1
(PID.TID 0000.0001)  %KRYLOV_MON: Nb. of Picard steps    =         31
(PID.TID 0000.0001)  %KRYLOV_MON: Nb. of Krylov steps    =         30
(PID.TID 0000.0001)  %KRYLOV_MON: Nb. of Picard failures =          0
(PID.TID 0000.0001)  %KRYLOV_MON: Nb. of Krylov failures =          0
(PID.TID 0000.0001)  // =======================================================
(PID.TID 0000.0001)  // End KRYLOV statistics
(PID.TID 0000.0001)  // =======================================================
(PID.TID 0000.0001)  S/R SEAICE_KRYLOV: Total number FGMRES iterations =     30 in timestep         11
(PID.TID 0000.0001) // =======================================================
(PID.TID 0000.0001) // Begin MONITOR dynamic field statistics
(PID.TID 0000.0001) // =======================================================
(PID.TID 0000.0001) %MON time_tsnumber                =                    11
(PID.TID 0000.0001) %MON time_secondsf                =   2.7500000000000E+01
(PID.TID 0000.0001) %MON dynstat_eta_max              =   0.0000000000000E+00
(PID.TID 0000.0001) %MON dynstat_eta_min              =   0.0000000000000E+00
(PID.TID 0000.0001) %MON dynstat_eta_mean             =   0.0000000000000E+00
(PID.TID 0000.0001) %MON dynstat_eta_sd               =   0.0000000000000E+00
(PID.TID 0000.0001) %MON dynstat_eta_del2             =   0.0000000000000E+00
(PID.TID 0000.0001) %MON dynstat_uvel_max             =   9.8437500000000E-03
(PID.TID 0000.0001) %MON dynstat_uvel_min             =  -9.8437500000000E-03
(PID.TID 0000.0001) %MON dynstat_uvel_mean            =   0.0000000000000E+00
(PID.TID 0000.0001) %MON dynstat_uvel_sd              =   5.7727978755972E-03
(PID.TID 0000.0001) %MON dynstat_uvel_del2            =   1.0089048364799E-20
(PID.TID 0000.0001) %MON dynstat_vvel_max             =   9.8437500000000E-03
(PID.TID 0000.0001) %MON dynstat_vvel_min             =  -9.8437500000000E-03
(PID.TID 0000.0001) %MON dynstat_vvel_mean            =   0.0000000000000E+00
(PID.TID 0000.0001) %MON dynstat_vvel_sd              =   5.7727978755972E-03
(PID.TID 0000.0001) %MON dynstat_vvel_del2            =   1.0089048364799E-20
(PID.TID 0000.0001) %MON dynstat_wvel_max             =   1.1914062500000E-05
(PID.TID 0000.0001) %MON dynstat_wvel_min             =  -1.1914062500000E-05
(PID.TID 0000.0001) %MON dynstat_wvel_mean            =   3.4694469519536E-25
(PID.TID 0000.0001) %MON dynstat_wvel_sd              =   1.7200872247780E-06
(PID.TID 0000.0001) %MON dynstat_wvel_del2            =   2.8187489626940E-08
(PID.TID 0000.0001) %MON dynstat_theta_max            =  -1.6200000000000E+00
(PID.TID 0000.0001) %MON dynstat_theta_min            =  -1.6200000000000E+00
(PID.TID 0000.0001) %MON dynstat_theta_mean           =  -1.6200000000000E+00
(PID.TID 0000.0001) %MON dynstat_theta_sd             =   0.0000000000000E+00
(PID.TID 0000.0001) %MON dynstat_theta_del2           =   0.0000000000000E+00
(PID.TID 0000.0001) %MON dynstat_salt_max             =   3.0000000000000E+01
(PID.TID 0000.0001) %MON dynstat_salt_min             =   3.0000000000000E+01
(PID.TID 0000.0001) %MON dynstat_salt_mean            =   3.0000000000000E+01
(PID.TID 0000.0001) %MON dynstat_salt_sd              =   0.0000000000000E+00
(PID.TID 0000.0001) %MON dynstat_salt_del2            =   0.0000000000000E+00
(PID.TID 0000.0001) %MON trAdv_CFL_u_max              =   3.0761718750000E-06
(PID.TID 0000.0001) %MON trAdv_CFL_v_max              =   3.0761718750000E-06
(PID.TID 0000.0001) %MON trAdv_CFL_w_max              =   2.9785156250000E-06
(PID.TID 0000.0001) %MON advcfl_uvel_max              =   3.0761718750000E-06
(PID.TID 0000.0001) %MON advcfl_vvel_max              =   3.0761718750000E-06
(PID.TID 0000.0001) %MON advcfl_wvel_max              =   5.9570312500000E-06
(PID.TID 0000.0001) %MON advcfl_W_hf_max              =   0.0000000000000E+00
(PID.TID 0000.0001) %MON pe_b_mean                    =   0.0000000000000E+00
(PID.TID 0000.0001) %MON ke_max                       =   9.0844726562500E-05
(PID.TID 0000.0001) %MON ke_mean                      =   3.2804489135742E-05
(PID.TID 0000.0001) %MON ke_vol                       =   2.6214400000000E+12
(PID.TID 0000.0001) %MON vort_r_min                   =  -7.8125000000000E-08
(PID.TID 0000.0001) %MON vort_r_max                   =   1.2304687500000E-06
(PID.TID 0000.0001) %MON vort_a_mean                  =   1.4856000000000E-04
(PID.TID 0000.0001) %MON vort_a_sd                    =   1.5312918562496E-06
(PID.TID 0000.0001) %MON vort_p_mean                  =   1.5552375000000E-04
(PID.TID 0000.0001) %MON vort_p_sd                    =   5.5921473110222E-05
(PID.TID 0000.0001) %MON surfExpan_theta_mean         =   0.0000000000000E+00
(PID.TID 0000.0001) %MON surfExpan_salt_mean          =   1.3877787807814E-23
(PID.TID 0000.0001) // =======================================================
(PID.TID 0000.0001) // End MONITOR dynamic field statistics
(PID.TID 0000.0001) // =======================================================
(PID.TID 0000.0001) // =======================================================
(PID.TID 0000.0001) // Begin MONITOR SEAICE statistics
(PID.TID 0000.0001) // =======================================================
(PID.TID 0000.0001) %MON seaice_tsnumber              =                    11
(PID.TID 0000.0001) %MON seaice_time_sec              =   2.7500000000000E+01
(PID.TID 0000.0001) %MON seaice_uice_max              =   1.8898826700348E-02
(PID.TID 0000.0001) %MON seaice_uice_min              =  -1.9296238129312E-02
(PID.TID 0000.0001) %MON seaice_uice_mean             =  -5.6158257415540E-07
(PID.TID 0000.0001) %MON seaice_uice_sd               =   8.1465247450319E-03
(PID.TID 0000.0001) %MON seaice_uice_del2             =   2.5851720780190E-06
(PID.TID 0000.0001) %MON seaice_vice_max              =   1.8471306746102E-02
(PID.TID 0000.0001) %MON seaice_vice_min              =  -1.8686383014766E-02
(PID.TID 0000.0001) %MON seaice_vice_mean             =   2.0881727987985E-06
(PID.TID 0000.0001) %MON seaice_vice_sd               =   8.1076875762696E-03
(PID.TID 0000.0001) %MON seaice_vice_del2             =   2.5950062695284E-06
(PID.TID 0000.0001) %MON seaice_area_max              =   1.0000000000000E+00
(PID.TID 0000.0001) %MON seaice_area_min              =   9.9999539149871E-01
(PID.TID 0000.0001) %MON seaice_area_mean             =   9.9999972601755E-01
(PID.TID 0000.0001) %MON seaice_area_sd               =   6.2865387965554E-07
(PID.TID 0000.0001) %MON seaice_area_del2             =   7.7045570517168E-09
(PID.TID 0000.0001) %MON seaice_heff_max              =   3.0999860035002E-01
(PID.TID 0000.0001) %MON seaice_heff_min              =   2.9006049058108E-01
(PID.TID 0000.0001) %MON seaice_heff_mean             =   3.0067126525963E-01
(PID.TID 0000.0001) %MON seaice_heff_sd               =   5.0069245415004E-03
(PID.TID 0000.0001) %MON seaice_heff_del2             =   1.2853738961246E-05
(PID.TID 0000.0001) %MON seaice_hsnow_max             =   0.0000000000000E+00
(PID.TID 0000.0001) %MON seaice_hsnow_min             =   0.0000000000000E+00
(PID.TID 0000.0001) %MON seaice_hsnow_mean            =   0.0000000000000E+00
(PID.TID 0000.0001) %MON seaice_hsnow_sd              =   0.0000000000000E+00
(PID.TID 0000.0001) %MON seaice_hsnow_del2            =   0.0000000000000E+00
(PID.TID 0000.0001) // =======================================================
(PID.TID 0000.0001) // End MONITOR SEAICE statistics
(PID.TID 0000.0001) // =======================================================
 Computing Diagnostic #    163  SIuice       Counter:       1   Parms: UU      M1      
           Vector  Mate for  SIuice       Diagnostic #    164  SIvice   exists 
 Computing Diagnostic #    164  SIvice       Counter:       1   Parms: VV      M1      
           Vector  Mate for  SIvice       Diagnostic #    163  SIuice   exists 
 Computing Diagnostic #    149  SIheff       Counter:       1   Parms: SM      M1      
 Computing Diagnostic #    146  SIarea       Counter:       1   Parms: SM      M1      
 Computing Diagnostic #    228  SIshear      Counter:       1   Parms: SM      M1      
 Computing Diagnostic #    233  SIcohes      Counter:       1   Parms: SM      M1      
 Computing Diagnostic #    221  SIsig1       Counter:       1   Parms: SM      M1      
 Computing Diagnostic #    222  SIsig2       Counter:       1   Parms: SM      M1      
 Computing Diagnostic #    231  SIdamage     Counter:       1   Parms: SM      M1      
 Computing Diagnostic #    165  SItaux       Counter:       1   Parms: UU      U1      
           Vector  Mate for  SItaux       Diagnostic #    166  SItauy   exists 
 Computing Diagnostic #    166  SItauy       Counter:       1   Parms: VV      U1      
           Vector  Mate for  SItauy       Diagnostic #    165  SItaux   exists 
 Computing Diagnostic #    133  EXFuwind     Counter:       1   Parms: UM      U1      
 Computing Diagnostic #    134  EXFvwind     Counter:       1   Parms: VM      U1      
(PID.TID 0000.0001)  S/R SEAICE_KRYLOV: Picard iterate / total, KRYLOVgamma_lin, initial norm =       1   1101 0.10000E+00 0.10953E+00
(PID.TID 0000.0001)  S/R SEAICE_KRYLOV: Picard iterate / total =      1 /   1101, Nb. of FGMRES iterations =      1
(PID.TID 0000.0001)  S/R SEAICE_KRYLOV: Picard iterate / total, KRYLOVgamma_lin, initial norm =       2   1102 0.50000E-01 0.17103E-03
(PID.TID 0000.0001)  S/R SEAICE_KRYLOV: Picard iterate / total =      2 /   1102, Nb. of FGMRES iterations =      1
(PID.TID 0000.0001)  S/R SEAICE_KRYLOV: Picard iterate / total, KRYLOVgamma_lin, initial norm =       3   1103 0.50000E-01 0.19553E-04
(PID.TID 0000.0001)  S/R SEAICE_KRYLOV: Picard iterate / total =      3 /   1103, Nb. of FGMRES iterations =      1
(PID.TID 0000.0001)  S/R SEAICE_KRYLOV: Picard iterate / total, KRYLOVgamma_lin, initial norm =       4   1104 0.33333E-01 0.13390E-04
(PID.TID 0000.0001)  S/R SEAICE_KRYLOV: Picard iterate / total =      4 /   1104, Nb. of FGMRES iterations =      1
(PID.TID 0000.0001)  S/R SEAICE_KRYLOV: Picard iterate / total, KRYLOVgamma_lin, initial norm =       5   1105 0.33333E-01 0.63755E-05
(PID.TID 0000.0001)  S/R SEAICE_KRYLOV: Picard iterate / total =      5 /   1105, Nb. of FGMRES iterations =      1
(PID.TID 0000.0001)  S/R SEAICE_KRYLOV: Picard iterate / total, KRYLOVgamma_lin, initial norm =       6   1106 0.33333E-01 0.32120E-05
(PID.TID 0000.0001)  S/R SEAICE_KRYLOV: Picard iterate / total =      6 /   1106, Nb. of FGMRES iterations =      1
(PID.TID 0000.0001)  S/R SEAICE_KRYLOV: Picard iterate / total, KRYLOVgamma_lin, initial norm =       7   1107 0.33333E-01 0.16041E-05
(PID.TID 0000.0001)  S/R SEAICE_KRYLOV: Picard iterate / total =      7 /   1107, Nb. of FGMRES iterations =      1
(PID.TID 0000.0001)  S/R SEAICE_KRYLOV: Picard iterate / total, KRYLOVgamma_lin, initial norm =       8   1108 0.25000E-01 0.80220E-06
(PID.TID 0000.0001)  S/R SEAICE_KRYLOV: Picard iterate / total =      8 /   1108, Nb. of FGMRES iterations =      1
(PID.TID 0000.0001)  S/R SEAICE_KRYLOV: Picard iterate / total, KRYLOVgamma_lin, initial norm =       9   1109 0.20000E-01 0.40109E-06
(PID.TID 0000.0001)  S/R SEAICE_KRYLOV: Picard iterate / total =      9 /   1109, Nb. of FGMRES iterations =      1
(PID.TID 0000.0001)  S/R SEAICE_KRYLOV: Picard iterate / total, KRYLOVgamma_lin, initial norm =      10   1110 0.12500E-01 0.20054E-06
(PID.TID 0000.0001)  S/R SEAICE_KRYLOV: Picard iterate / total =     10 /   1110, Nb. of FGMRES iterations =      1
(PID.TID 0000.0001)  S/R SEAICE_KRYLOV: Picard iterate / total, KRYLOVgamma_lin, initial norm =      11   1111 0.12500E-01 0.10027E-06
(PID.TID 0000.0001)  S/R SEAICE_KRYLOV: Picard iterate / total =     11 /   1111, Nb. of FGMRES iterations =      1
(PID.TID 0000.0001)  S/R SEAICE_KRYLOV: Picard iterate / total, KRYLOVgamma_lin, initial norm =      12   1112 0.12500E-01 0.50136E-07
(PID.TID 0000.0001)  S/R SEAICE_KRYLOV: Picard iterate / total =     12 /   1112, Nb. of FGMRES iterations =      1
(PID.TID 0000.0001)  S/R SEAICE_KRYLOV: Picard iterate / total, KRYLOVgamma_lin, initial norm =      13   1113 0.12500E-01 0.25068E-07
(PID.TID 0000.0001)  S/R SEAICE_KRYLOV: Picard iterate / total =     13 /   1113, Nb. of FGMRES iterations =      1
(PID.TID 0000.0001)  S/R SEAICE_KRYLOV: Picard iterate / total, KRYLOVgamma_lin, initial norm =      14   1114 0.12500E-01 0.12534E-07
(PID.TID 0000.0001)  S/R SEAICE_KRYLOV: Picard iterate / total =     14 /   1114, Nb. of FGMRES iterations =      1
(PID.TID 0000.0001)  S/R SEAICE_KRYLOV: Picard iterate / total, KRYLOVgamma_lin, initial norm =      15   1115 0.12500E-01 0.62670E-08
(PID.TID 0000.0001)  S/R SEAICE_KRYLOV: Picard iterate / total =     15 /   1115, Nb. of FGMRES iterations =      1
(PID.TID 0000.0001)  S/R SEAICE_KRYLOV: Picard iterate / total, KRYLOVgamma_lin, initial norm =      16   1116 0.12500E-01 0.31335E-08
(PID.TID 0000.0001)  S/R SEAICE_KRYLOV: Picard iterate / total =     16 /   1116, Nb. of FGMRES iterations =      1
(PID.TID 0000.0001)  S/R SEAICE_KRYLOV: Picard iterate / total, KRYLOVgamma_lin, initial norm =      17   1117 0.12500E-01 0.15668E-08
(PID.TID 0000.0001)  S/R SEAICE_KRYLOV: Picard iterate / total =     17 /   1117, Nb. of FGMRES iterations =      1
(PID.TID 0000.0001)  S/R SEAICE_KRYLOV: Picard iterate / total, KRYLOVgamma_lin, initial norm =      18   1118 0.12500E-01 0.78338E-09
(PID.TID 0000.0001)  S/R SEAICE_KRYLOV: Picard iterate / total =     18 /   1118, Nb. of FGMRES iterations =      1
(PID.TID 0000.0001)  S/R SEAICE_KRYLOV: Picard iterate / total, KRYLOVgamma_lin, initial norm =      19   1119 0.12500E-01 0.39169E-09
(PID.TID 0000.0001)  S/R SEAICE_KRYLOV: Picard iterate / total =     19 /   1119, Nb. of FGMRES iterations =      1
(PID.TID 0000.0001)  S/R SEAICE_KRYLOV: Picard iterate / total, KRYLOVgamma_lin, initial norm =      20   1120 0.12500E-01 0.19584E-09
(PID.TID 0000.0001)  S/R SEAICE_KRYLOV: Picard iterate / total =     20 /   1120, Nb. of FGMRES iterations =      1
(PID.TID 0000.0001)  S/R SEAICE_KRYLOV: Picard iterate / total, KRYLOVgamma_lin, initial norm =      21   1121 0.12500E-01 0.97922E-10
(PID.TID 0000.0001)  S/R SEAICE_KRYLOV: Picard iterate / total =     21 /   1121, Nb. of FGMRES iterations =      1
(PID.TID 0000.0001)  S/R SEAICE_KRYLOV: Picard iterate / total, KRYLOVgamma_lin, initial norm =      22   1122 0.12500E-01 0.48961E-10
(PID.TID 0000.0001)  S/R SEAICE_KRYLOV: Picard iterate / total =     22 /   1122, Nb. of FGMRES iterations =      1
(PID.TID 0000.0001)  S/R SEAICE_KRYLOV: Picard iterate / total, KRYLOVgamma_lin, initial norm =      23   1123 0.12500E-01 0.24480E-10
(PID.TID 0000.0001)  S/R SEAICE_KRYLOV: Picard iterate / total =     23 /   1123, Nb. of FGMRES iterations =      1
(PID.TID 0000.0001)  S/R SEAICE_KRYLOV: Picard iterate / total, KRYLOVgamma_lin, initial norm =      24   1124 0.12500E-01 0.12240E-10
(PID.TID 0000.0001)  S/R SEAICE_KRYLOV: Picard iterate / total =     24 /   1124, Nb. of FGMRES iterations =      1
(PID.TID 0000.0001)  S/R SEAICE_KRYLOV: Picard iterate / total, KRYLOVgamma_lin, initial norm =      25   1125 0.12500E-01 0.61201E-11
(PID.TID 0000.0001)  S/R SEAICE_KRYLOV: Picard iterate / total =     25 /   1125, Nb. of FGMRES iterations =      1
(PID.TID 0000.0001)  S/R SEAICE_KRYLOV: Picard iterate / total, KRYLOVgamma_lin, initial norm =      26   1126 0.12500E-01 0.30601E-11
(PID.TID 0000.0001)  S/R SEAICE_KRYLOV: Picard iterate / total =     26 /   1126, Nb. of FGMRES iterations =      1
(PID.TID 0000.0001)  S/R SEAICE_KRYLOV: Picard iterate / total, KRYLOVgamma_lin, initial norm =      27   1127 0.12500E-01 0.15300E-11
(PID.TID 0000.0001)  S/R SEAICE_KRYLOV: Picard iterate / total =     27 /   1127, Nb. of FGMRES iterations =      1
(PID.TID 0000.0001)  S/R SEAICE_KRYLOV: Picard iterate / total, KRYLOVgamma_lin, initial norm =      28   1128 0.12500E-01 0.76502E-12
(PID.TID 0000.0001)  S/R SEAICE_KRYLOV: Picard iterate / total =     28 /   1128, Nb. of FGMRES iterations =      1
(PID.TID 0000.0001)  S/R SEAICE_KRYLOV: Picard iterate / total, KRYLOVgamma_lin, initial norm =      29   1129 0.12500E-01 0.38251E-12
(PID.TID 0000.0001)  S/R SEAICE_KRYLOV: Picard iterate / total =     29 /   1129, Nb. of FGMRES iterations =      1
(PID.TID 0000.0001)  S/R SEAICE_KRYLOV: Picard iterate / total, KRYLOVgamma_lin, initial norm =      30   1130 0.12500E-01 0.19126E-12
(PID.TID 0000.0001)  S/R SEAICE_KRYLOV: Picard iterate / total =     30 /   1130, Nb. of FGMRES iterations =      1
(PID.TID 0000.0001)  S/R SEAICE_KRYLOV: Picard iterate / total, KRYLOVgamma_lin, final   norm =      31   1131 0.12500E-01 0.95624E-13
(PID.TID 0000.0001)  // =======================================================
(PID.TID 0000.0001)  // Begin KRYLOV statistics
(PID.TID 0000.0001)  // =======================================================
(PID.TID 0000.0001)  %KRYLOV_MON: time step              =         12
(PID.TID 0000.0001)  %KRYLOV_MON: Nb. of time steps      =          1
(PID.TID 0000.0001)  %KRYLOV_MON: Nb. of Picard steps    =         31
(PID.TID 0000.0001)  %KRYLOV_MON: Nb. of Krylov steps    =         30
(PID.TID 0000.0001)  %KRYLOV_MON: Nb. of Picard failures =          0
(PID.TID 0000.0001)  %KRYLOV_MON: Nb. of Krylov failures =          0
(PID.TID 0000.0001)  // =======================================================
(PID.TID 0000.0001)  // End KRYLOV statistics
(PID.TID 0000.0001)  // =======================================================
(PID.TID 0000.0001)  S/R SEAICE_KRYLOV: Total number FGMRES iterations =     30 in timestep         12
(PID.TID 0000.0001) // =======================================================
(PID.TID 0000.0001) // Begin MONITOR dynamic field statistics
(PID.TID 0000.0001) // =======================================================
(PID.TID 0000.0001) %MON time_tsnumber                =                    12
(PID.TID 0000.0001) %MON time_secondsf                =   3.0000000000000E+01
(PID.TID 0000.0001) %MON dynstat_eta_max              =   0.0000000000000E+00
(PID.TID 0000.0001) %MON dynstat_eta_min              =   0.0000000000000E+00
(PID.TID 0000.0001) %MON dynstat_eta_mean             =   0.0000000000000E+00
(PID.TID 0000.0001) %MON dynstat_eta_sd               =   0.0000000000000E+00
(PID.TID 0000.0001) %MON dynstat_eta_del2             =   0.0000000000000E+00
(PID.TID 0000.0001) %MON dynstat_uvel_max             =   9.8437500000000E-03
(PID.TID 0000.0001) %MON dynstat_uvel_min             =  -9.8437500000000E-03
(PID.TID 0000.0001) %MON dynstat_uvel_mean            =   0.0000000000000E+00
(PID.TID 0000.0001) %MON dynstat_uvel_sd              =   5.7727978755972E-03
(PID.TID 0000.0001) %MON dynstat_uvel_del2            =   1.0089048364799E-20
(PID.TID 0000.0001) %MON dynstat_vvel_max             =   9.8437500000000E-03
(PID.TID 0000.0001) %MON dynstat_vvel_min             =  -9.8437500000000E-03
(PID.TID 0000.0001) %MON dynstat_vvel_mean            =   0.0000000000000E+00
(PID.TID 0000.0001) %MON dynstat_vvel_sd              =   5.7727978755972E-03
(PID.TID 0000.0001) %MON dynstat_vvel_del2            =   1.0089048364799E-20
(PID.TID 0000.0001) %MON dynstat_wvel_max             =   1.1914062500000E-05
(PID.TID 0000.0001) %MON dynstat_wvel_min             =  -1.1914062500000E-05
(PID.TID 0000.0001) %MON dynstat_wvel_mean            =   3.4694469519536E-25
(PID.TID 0000.0001) %MON dynstat_wvel_sd              =   1.7200872247780E-06
(PID.TID 0000.0001) %MON dynstat_wvel_del2            =   2.8187489626940E-08
(PID.TID 0000.0001) %MON dynstat_theta_max            =  -1.6200000000000E+00
(PID.TID 0000.0001) %MON dynstat_theta_min            =  -1.6200000000000E+00
(PID.TID 0000.0001) %MON dynstat_theta_mean           =  -1.6200000000000E+00
(PID.TID 0000.0001) %MON dynstat_theta_sd             =   0.0000000000000E+00
(PID.TID 0000.0001) %MON dynstat_theta_del2           =   0.0000000000000E+00
(PID.TID 0000.0001) %MON dynstat_salt_max             =   3.0000000000000E+01
(PID.TID 0000.0001) %MON dynstat_salt_min             =   3.0000000000000E+01
(PID.TID 0000.0001) %MON dynstat_salt_mean            =   3.0000000000000E+01
(PID.TID 0000.0001) %MON dynstat_salt_sd              =   0.0000000000000E+00
(PID.TID 0000.0001) %MON dynstat_salt_del2            =   0.0000000000000E+00
(PID.TID 0000.0001) %MON trAdv_CFL_u_max              =   3.0761718750000E-06
(PID.TID 0000.0001) %MON trAdv_CFL_v_max              =   3.0761718750000E-06
(PID.TID 0000.0001) %MON trAdv_CFL_w_max              =   2.9785156250000E-06
(PID.TID 0000.0001) %MON advcfl_uvel_max              =   3.0761718750000E-06
(PID.TID 0000.0001) %MON advcfl_vvel_max              =   3.0761718750000E-06
(PID.TID 0000.0001) %MON advcfl_wvel_max              =   5.9570312500000E-06
(PID.TID 0000.0001) %MON advcfl_W_hf_max              =   0.0000000000000E+00
(PID.TID 0000.0001) %MON pe_b_mean                    =   0.0000000000000E+00
(PID.TID 0000.0001) %MON ke_max                       =   9.0844726562500E-05
(PID.TID 0000.0001) %MON ke_mean                      =   3.2804489135742E-05
(PID.TID 0000.0001) %MON ke_vol                       =   2.6214400000000E+12
(PID.TID 0000.0001) %MON vort_r_min                   =  -7.8125000000000E-08
(PID.TID 0000.0001) %MON vort_r_max                   =   1.2304687500000E-06
(PID.TID 0000.0001) %MON vort_a_mean                  =   1.4856000000000E-04
(PID.TID 0000.0001) %MON vort_a_sd                    =   1.5312918562496E-06
(PID.TID 0000.0001) %MON vort_p_mean                  =   1.5552375000000E-04
(PID.TID 0000.0001) %MON vort_p_sd                    =   5.5921473110222E-05
(PID.TID 0000.0001) %MON surfExpan_theta_mean         =   0.0000000000000E+00
(PID.TID 0000.0001) %MON surfExpan_salt_mean          =   1.3877787807814E-23
(PID.TID 0000.0001) // =======================================================
(PID.TID 0000.0001) // End MONITOR dynamic field statistics
(PID.TID 0000.0001) // =======================================================
(PID.TID 0000.0001) // =======================================================
(PID.TID 0000.0001) // Begin MONITOR SEAICE statistics
(PID.TID 0000.0001) // =======================================================
(PID.TID 0000.0001) %MON seaice_tsnumber              =                    12
(PID.TID 0000.0001) %MON seaice_time_sec              =   3.0000000000000E+01
(PID.TID 0000.0001) %MON seaice_uice_max              =   2.0585989286678E-02
(PID.TID 0000.0001) %MON seaice_uice_min              =  -2.1005510624788E-02
(PID.TID 0000.0001) %MON seaice_uice_mean             =  -6.3493473779375E-07
(PID.TID 0000.0001) %MON seaice_uice_sd               =   8.8705153792355E-03
(PID.TID 0000.0001) %MON seaice_uice_del2             =   2.8202184929926E-06
(PID.TID 0000.0001) %MON seaice_vice_max              =   2.0118009304232E-02
(PID.TID 0000.0001) %MON seaice_vice_min              =  -2.0351119541546E-02
(PID.TID 0000.0001) %MON seaice_vice_mean             =   2.2812316575149E-06
(PID.TID 0000.0001) %MON seaice_vice_sd               =   8.8284679048388E-03
(PID.TID 0000.0001) %MON seaice_vice_del2             =   2.8319101083415E-06
(PID.TID 0000.0001) %MON seaice_area_max              =   1.0000000000000E+00
(PID.TID 0000.0001) %MON seaice_area_min              =   9.9999453709645E-01
(PID.TID 0000.0001) %MON seaice_area_mean             =   9.9999967729252E-01
(PID.TID 0000.0001) %MON seaice_area_sd               =   7.4617690453825E-07
(PID.TID 0000.0001) %MON seaice_area_del2             =   9.2620633714763E-09
(PID.TID 0000.0001) %MON seaice_heff_max              =   3.0999858737049E-01
(PID.TID 0000.0001) %MON seaice_heff_min              =   2.9006047704676E-01
(PID.TID 0000.0001) %MON seaice_heff_mean             =   3.0067126525963E-01
(PID.TID 0000.0001) %MON seaice_heff_sd               =   5.0069250364090E-03
(PID.TID 0000.0001) %MON seaice_heff_del2             =   1.2853736350203E-05
(PID.TID 0000.0001) %MON seaice_hsnow_max             =   0.0000000000000E+00
(PID.TID 0000.0001) %MON seaice_hsnow_min             =   0.0000000000000E+00
(PID.TID 0000.0001) %MON seaice_hsnow_mean            =   0.0000000000000E+00
(PID.TID 0000.0001) %MON seaice_hsnow_sd              =   0.0000000000000E+00
(PID.TID 0000.0001) %MON seaice_hsnow_del2            =   0.0000000000000E+00
(PID.TID 0000.0001) // =======================================================
(PID.TID 0000.0001) // End MONITOR SEAICE statistics
(PID.TID 0000.0001) // =======================================================
 Computing Diagnostic #    163  SIuice       Counter:       1   Parms: UU      M1      
           Vector  Mate for  SIuice       Diagnostic #    164  SIvice   exists 
 Computing Diagnostic #    164  SIvice       Counter:       1   Parms: VV      M1      
           Vector  Mate for  SIvice       Diagnostic #    163  SIuice   exists 
 Computing Diagnostic #    149  SIheff       Counter:       1   Parms: SM      M1      
 Computing Diagnostic #    146  SIarea       Counter:       1   Parms: SM      M1      
 Computing Diagnostic #    228  SIshear      Counter:       1   Parms: SM      M1      
 Computing Diagnostic #    233  SIcohes      Counter:       1   Parms: SM      M1      
 Computing Diagnostic #    221  SIsig1       Counter:       1   Parms: SM      M1      
 Computing Diagnostic #    222  SIsig2       Counter:       1   Parms: SM      M1      
 Computing Diagnostic #    231  SIdamage     Counter:       1   Parms: SM      M1      
 Computing Diagnostic #    165  SItaux       Counter:       1   Parms: UU      U1      
           Vector  Mate for  SItaux       Diagnostic #    166  SItauy   exists 
 Computing Diagnostic #    166  SItauy       Counter:       1   Parms: VV      U1      
           Vector  Mate for  SItauy       Diagnostic #    165  SItaux   exists 
 Computing Diagnostic #    133  EXFuwind     Counter:       1   Parms: UM      U1      
 Computing Diagnostic #    134  EXFvwind     Counter:       1   Parms: VM      U1      
(PID.TID 0000.0001)  S/R SEAICE_KRYLOV: Picard iterate / total, KRYLOVgamma_lin, initial norm =       1   1201 0.10000E+00 0.10915E+00
(PID.TID 0000.0001)  S/R SEAICE_KRYLOV: Picard iterate / total =      1 /   1201, Nb. of FGMRES iterations =      1
(PID.TID 0000.0001)  S/R SEAICE_KRYLOV: Picard iterate / total, KRYLOVgamma_lin, initial norm =       2   1202 0.50000E-01 0.15793E-03
(PID.TID 0000.0001)  S/R SEAICE_KRYLOV: Picard iterate / total =      2 /   1202, Nb. of FGMRES iterations =      1
(PID.TID 0000.0001)  S/R SEAICE_KRYLOV: Picard iterate / total, KRYLOVgamma_lin, initial norm =       3   1203 0.50000E-01 0.17597E-04
(PID.TID 0000.0001)  S/R SEAICE_KRYLOV: Picard iterate / total =      3 /   1203, Nb. of FGMRES iterations =      1
(PID.TID 0000.0001)  S/R SEAICE_KRYLOV: Picard iterate / total, KRYLOVgamma_lin, initial norm =       4   1204 0.33333E-01 0.12020E-04
(PID.TID 0000.0001)  S/R SEAICE_KRYLOV: Picard iterate / total =      4 /   1204, Nb. of FGMRES iterations =      1
(PID.TID 0000.0001)  S/R SEAICE_KRYLOV: Picard iterate / total, KRYLOVgamma_lin, initial norm =       5   1205 0.33333E-01 0.57257E-05
(PID.TID 0000.0001)  S/R SEAICE_KRYLOV: Picard iterate / total =      5 /   1205, Nb. of FGMRES iterations =      1
(PID.TID 0000.0001)  S/R SEAICE_KRYLOV: Picard iterate / total, KRYLOVgamma_lin, initial norm =       6   1206 0.33333E-01 0.28841E-05
(PID.TID 0000.0001)  S/R SEAICE_KRYLOV: Picard iterate / total =      6 /   1206, Nb. of FGMRES iterations =      1
(PID.TID 0000.0001)  S/R SEAICE_KRYLOV: Picard iterate / total, KRYLOVgamma_lin, initial norm =       7   1207 0.33333E-01 0.14404E-05
(PID.TID 0000.0001)  S/R SEAICE_KRYLOV: Picard iterate / total =      7 /   1207, Nb. of FGMRES iterations =      1
(PID.TID 0000.0001)  S/R SEAICE_KRYLOV: Picard iterate / total, KRYLOVgamma_lin, initial norm =       8   1208 0.25000E-01 0.72033E-06
(PID.TID 0000.0001)  S/R SEAICE_KRYLOV: Picard iterate / total =      8 /   1208, Nb. of FGMRES iterations =      1
(PID.TID 0000.0001)  S/R SEAICE_KRYLOV: Picard iterate / total, KRYLOVgamma_lin, initial norm =       9   1209 0.20000E-01 0.36015E-06
(PID.TID 0000.0001)  S/R SEAICE_KRYLOV: Picard iterate / total =      9 /   1209, Nb. of FGMRES iterations =      1
(PID.TID 0000.0001)  S/R SEAICE_KRYLOV: Picard iterate / total, KRYLOVgamma_lin, initial norm =      10   1210 0.12500E-01 0.18008E-06
(PID.TID 0000.0001)  S/R SEAICE_KRYLOV: Picard iterate / total =     10 /   1210, Nb. of FGMRES iterations =      1
(PID.TID 0000.0001)  S/R SEAICE_KRYLOV: Picard iterate / total, KRYLOVgamma_lin, initial norm =      11   1211 0.12500E-01 0.90038E-07
(PID.TID 0000.0001)  S/R SEAICE_KRYLOV: Picard iterate / total =     11 /   1211, Nb. of FGMRES iterations =      1
(PID.TID 0000.0001)  S/R SEAICE_KRYLOV: Picard iterate / total, KRYLOVgamma_lin, initial norm =      12   1212 0.12500E-01 0.45019E-07
(PID.TID 0000.0001)  S/R SEAICE_KRYLOV: Picard iterate / total =     12 /   1212, Nb. of FGMRES iterations =      1
(PID.TID 0000.0001)  S/R SEAICE_KRYLOV: Picard iterate / total, KRYLOVgamma_lin, initial norm =      13   1213 0.12500E-01 0.22510E-07
(PID.TID 0000.0001)  S/R SEAICE_KRYLOV: Picard iterate / total =     13 /   1213, Nb. of FGMRES iterations =      1
(PID.TID 0000.0001)  S/R SEAICE_KRYLOV: Picard iterate / total, KRYLOVgamma_lin, initial norm =      14   1214 0.12500E-01 0.11255E-07
(PID.TID 0000.0001)  S/R SEAICE_KRYLOV: Picard iterate / total =     14 /   1214, Nb. of FGMRES iterations =      1
(PID.TID 0000.0001)  S/R SEAICE_KRYLOV: Picard iterate / total, KRYLOVgamma_lin, initial norm =      15   1215 0.12500E-01 0.56274E-08
(PID.TID 0000.0001)  S/R SEAICE_KRYLOV: Picard iterate / total =     15 /   1215, Nb. of FGMRES iterations =      1
(PID.TID 0000.0001)  S/R SEAICE_KRYLOV: Picard iterate / total, KRYLOVgamma_lin, initial norm =      16   1216 0.12500E-01 0.28137E-08
(PID.TID 0000.0001)  S/R SEAICE_KRYLOV: Picard iterate / total =     16 /   1216, Nb. of FGMRES iterations =      1
(PID.TID 0000.0001)  S/R SEAICE_KRYLOV: Picard iterate / total, KRYLOVgamma_lin, initial norm =      17   1217 0.12500E-01 0.14069E-08
(PID.TID 0000.0001)  S/R SEAICE_KRYLOV: Picard iterate / total =     17 /   1217, Nb. of FGMRES iterations =      1
(PID.TID 0000.0001)  S/R SEAICE_KRYLOV: Picard iterate / total, KRYLOVgamma_lin, initial norm =      18   1218 0.12500E-01 0.70343E-09
(PID.TID 0000.0001)  S/R SEAICE_KRYLOV: Picard iterate / total =     18 /   1218, Nb. of FGMRES iterations =      1
(PID.TID 0000.0001)  S/R SEAICE_KRYLOV: Picard iterate / total, KRYLOVgamma_lin, initial norm =      19   1219 0.12500E-01 0.35171E-09
(PID.TID 0000.0001)  S/R SEAICE_KRYLOV: Picard iterate / total =     19 /   1219, Nb. of FGMRES iterations =      1
(PID.TID 0000.0001)  S/R SEAICE_KRYLOV: Picard iterate / total, KRYLOVgamma_lin, initial norm =      20   1220 0.12500E-01 0.17586E-09
(PID.TID 0000.0001)  S/R SEAICE_KRYLOV: Picard iterate / total =     20 /   1220, Nb. of FGMRES iterations =      1
(PID.TID 0000.0001)  S/R SEAICE_KRYLOV: Picard iterate / total, KRYLOVgamma_lin, initial norm =      21   1221 0.12500E-01 0.87928E-10
(PID.TID 0000.0001)  S/R SEAICE_KRYLOV: Picard iterate / total =     21 /   1221, Nb. of FGMRES iterations =      1
(PID.TID 0000.0001)  S/R SEAICE_KRYLOV: Picard iterate / total, KRYLOVgamma_lin, initial norm =      22   1222 0.12500E-01 0.43964E-10
(PID.TID 0000.0001)  S/R SEAICE_KRYLOV: Picard iterate / total =     22 /   1222, Nb. of FGMRES iterations =      1
(PID.TID 0000.0001)  S/R SEAICE_KRYLOV: Picard iterate / total, KRYLOVgamma_lin, initial norm =      23   1223 0.12500E-01 0.21982E-10
(PID.TID 0000.0001)  S/R SEAICE_KRYLOV: Picard iterate / total =     23 /   1223, Nb. of FGMRES iterations =      1
(PID.TID 0000.0001)  S/R SEAICE_KRYLOV: Picard iterate / total, KRYLOVgamma_lin, initial norm =      24   1224 0.12500E-01 0.10991E-10
(PID.TID 0000.0001)  S/R SEAICE_KRYLOV: Picard iterate / total =     24 /   1224, Nb. of FGMRES iterations =      1
(PID.TID 0000.0001)  S/R SEAICE_KRYLOV: Picard iterate / total, KRYLOVgamma_lin, initial norm =      25   1225 0.12500E-01 0.54955E-11
(PID.TID 0000.0001)  S/R SEAICE_KRYLOV: Picard iterate / total =     25 /   1225, Nb. of FGMRES iterations =      1
(PID.TID 0000.0001)  S/R SEAICE_KRYLOV: Picard iterate / total, KRYLOVgamma_lin, initial norm =      26   1226 0.12500E-01 0.27478E-11
(PID.TID 0000.0001)  S/R SEAICE_KRYLOV: Picard iterate / total =     26 /   1226, Nb. of FGMRES iterations =      1
(PID.TID 0000.0001)  S/R SEAICE_KRYLOV: Picard iterate / total, KRYLOVgamma_lin, initial norm =      27   1227 0.12500E-01 0.13739E-11
(PID.TID 0000.0001)  S/R SEAICE_KRYLOV: Picard iterate / total =     27 /   1227, Nb. of FGMRES iterations =      1
(PID.TID 0000.0001)  S/R SEAICE_KRYLOV: Picard iterate / total, KRYLOVgamma_lin, initial norm =      28   1228 0.12500E-01 0.68694E-12
(PID.TID 0000.0001)  S/R SEAICE_KRYLOV: Picard iterate / total =     28 /   1228, Nb. of FGMRES iterations =      1
(PID.TID 0000.0001)  S/R SEAICE_KRYLOV: Picard iterate / total, KRYLOVgamma_lin, initial norm =      29   1229 0.12500E-01 0.34347E-12
(PID.TID 0000.0001)  S/R SEAICE_KRYLOV: Picard iterate / total =     29 /   1229, Nb. of FGMRES iterations =      1
(PID.TID 0000.0001)  S/R SEAICE_KRYLOV: Picard iterate / total, KRYLOVgamma_lin, initial norm =      30   1230 0.12500E-01 0.17174E-12
(PID.TID 0000.0001)  S/R SEAICE_KRYLOV: Picard iterate / total =     30 /   1230, Nb. of FGMRES iterations =      1
(PID.TID 0000.0001)  S/R SEAICE_KRYLOV: Picard iterate / total, KRYLOVgamma_lin, final   norm =      31   1231 0.12500E-01 0.85865E-13
(PID.TID 0000.0001)  // =======================================================
(PID.TID 0000.0001)  // Begin KRYLOV statistics
(PID.TID 0000.0001)  // =======================================================
(PID.TID 0000.0001)  %KRYLOV_MON: time step              =         13
(PID.TID 0000.0001)  %KRYLOV_MON: Nb. of time steps      =          1
(PID.TID 0000.0001)  %KRYLOV_MON: Nb. of Picard steps    =         31
(PID.TID 0000.0001)  %KRYLOV_MON: Nb. of Krylov steps    =         30
(PID.TID 0000.0001)  %KRYLOV_MON: Nb. of Picard failures =          0
(PID.TID 0000.0001)  %KRYLOV_MON: Nb. of Krylov failures =          0
(PID.TID 0000.0001)  // =======================================================
(PID.TID 0000.0001)  // End KRYLOV statistics
(PID.TID 0000.0001)  // =======================================================
(PID.TID 0000.0001)  S/R SEAICE_KRYLOV: Total number FGMRES iterations =     30 in timestep         13
(PID.TID 0000.0001) // =======================================================
(PID.TID 0000.0001) // Begin MONITOR dynamic field statistics
(PID.TID 0000.0001) // =======================================================
(PID.TID 0000.0001) %MON time_tsnumber                =                    13
(PID.TID 0000.0001) %MON time_secondsf                =   3.2500000000000E+01
(PID.TID 0000.0001) %MON dynstat_eta_max              =   0.0000000000000E+00
(PID.TID 0000.0001) %MON dynstat_eta_min              =   0.0000000000000E+00
(PID.TID 0000.0001) %MON dynstat_eta_mean             =   0.0000000000000E+00
(PID.TID 0000.0001) %MON dynstat_eta_sd               =   0.0000000000000E+00
(PID.TID 0000.0001) %MON dynstat_eta_del2             =   0.0000000000000E+00
(PID.TID 0000.0001) %MON dynstat_uvel_max             =   9.8437500000000E-03
(PID.TID 0000.0001) %MON dynstat_uvel_min             =  -9.8437500000000E-03
(PID.TID 0000.0001) %MON dynstat_uvel_mean            =   0.0000000000000E+00
(PID.TID 0000.0001) %MON dynstat_uvel_sd              =   5.7727978755972E-03
(PID.TID 0000.0001) %MON dynstat_uvel_del2            =   1.0089048364799E-20
(PID.TID 0000.0001) %MON dynstat_vvel_max             =   9.8437500000000E-03
(PID.TID 0000.0001) %MON dynstat_vvel_min             =  -9.8437500000000E-03
(PID.TID 0000.0001) %MON dynstat_vvel_mean            =   0.0000000000000E+00
(PID.TID 0000.0001) %MON dynstat_vvel_sd              =   5.7727978755972E-03
(PID.TID 0000.0001) %MON dynstat_vvel_del2            =   1.0089048364799E-20
(PID.TID 0000.0001) %MON dynstat_wvel_max             =   1.1914062500000E-05
(PID.TID 0000.0001) %MON dynstat_wvel_min             =  -1.1914062500000E-05
(PID.TID 0000.0001) %MON dynstat_wvel_mean            =   3.4694469519536E-25
(PID.TID 0000.0001) %MON dynstat_wvel_sd              =   1.7200872247780E-06
(PID.TID 0000.0001) %MON dynstat_wvel_del2            =   2.8187489626940E-08
(PID.TID 0000.0001) %MON dynstat_theta_max            =  -1.6200000000000E+00
(PID.TID 0000.0001) %MON dynstat_theta_min            =  -1.6200000000000E+00
(PID.TID 0000.0001) %MON dynstat_theta_mean           =  -1.6200000000000E+00
(PID.TID 0000.0001) %MON dynstat_theta_sd             =   0.0000000000000E+00
(PID.TID 0000.0001) %MON dynstat_theta_del2           =   0.0000000000000E+00
(PID.TID 0000.0001) %MON dynstat_salt_max             =   3.0000000000000E+01
(PID.TID 0000.0001) %MON dynstat_salt_min             =   3.0000000000000E+01
(PID.TID 0000.0001) %MON dynstat_salt_mean            =   3.0000000000000E+01
(PID.TID 0000.0001) %MON dynstat_salt_sd              =   0.0000000000000E+00
(PID.TID 0000.0001) %MON dynstat_salt_del2            =   0.0000000000000E+00
(PID.TID 0000.0001) %MON trAdv_CFL_u_max              =   3.0761718750000E-06
(PID.TID 0000.0001) %MON trAdv_CFL_v_max              =   3.0761718750000E-06
(PID.TID 0000.0001) %MON trAdv_CFL_w_max              =   2.9785156250000E-06
(PID.TID 0000.0001) %MON advcfl_uvel_max              =   3.0761718750000E-06
(PID.TID 0000.0001) %MON advcfl_vvel_max              =   3.0761718750000E-06
(PID.TID 0000.0001) %MON advcfl_wvel_max              =   5.9570312500000E-06
(PID.TID 0000.0001) %MON advcfl_W_hf_max              =   0.0000000000000E+00
(PID.TID 0000.0001) %MON pe_b_mean                    =   0.0000000000000E+00
(PID.TID 0000.0001) %MON ke_max                       =   9.0844726562500E-05
(PID.TID 0000.0001) %MON ke_mean                      =   3.2804489135742E-05
(PID.TID 0000.0001) %MON ke_vol                       =   2.6214400000000E+12
(PID.TID 0000.0001) %MON vort_r_min                   =  -7.8125000000000E-08
(PID.TID 0000.0001) %MON vort_r_max                   =   1.2304687500000E-06
(PID.TID 0000.0001) %MON vort_a_mean                  =   1.4856000000000E-04
(PID.TID 0000.0001) %MON vort_a_sd                    =   1.5312918562496E-06
(PID.TID 0000.0001) %MON vort_p_mean                  =   1.5552375000000E-04
(PID.TID 0000.0001) %MON vort_p_sd                    =   5.5921473110222E-05
(PID.TID 0000.0001) %MON surfExpan_theta_mean         =   0.0000000000000E+00
(PID.TID 0000.0001) %MON surfExpan_salt_mean          =   1.3877787807814E-23
(PID.TID 0000.0001) // =======================================================
(PID.TID 0000.0001) // End MONITOR dynamic field statistics
(PID.TID 0000.0001) // =======================================================
(PID.TID 0000.0001) // =======================================================
(PID.TID 0000.0001) // Begin MONITOR SEAICE statistics
(PID.TID 0000.0001) // =======================================================
(PID.TID 0000.0001) %MON seaice_tsnumber              =                    13
(PID.TID 0000.0001) %MON seaice_time_sec              =   3.2500000000000E+01
(PID.TID 0000.0001) %MON seaice_uice_max              =   2.2270966390682E-02
(PID.TID 0000.0001) %MON seaice_uice_min              =  -2.2707118135042E-02
(PID.TID 0000.0001) %MON seaice_uice_mean             =  -7.1059604082031E-07
(PID.TID 0000.0001) %MON seaice_uice_sd               =   9.5919005796202E-03
(PID.TID 0000.0001) %MON seaice_uice_del2             =   3.0510702435743E-06
(PID.TID 0000.0001) %MON seaice_vice_max              =   2.1759384854727E-02
(PID.TID 0000.0001) %MON seaice_vice_min              =  -2.2009917494516E-02
(PID.TID 0000.0001) %MON seaice_vice_mean             =   2.4723820807225E-06
(PID.TID 0000.0001) %MON seaice_vice_sd               =   9.5467007222146E-03
(PID.TID 0000.0001) %MON seaice_vice_del2             =   3.0646516222986E-06
(PID.TID 0000.0001) %MON seaice_area_max              =   1.0000000000000E+00
(PID.TID 0000.0001) %MON seaice_area_min              =   9.9999360864808E-01
(PID.TID 0000.0001) %MON seaice_area_mean             =   9.9999962474068E-01
(PID.TID 0000.0001) %MON seaice_area_sd               =   8.7418937069617E-07
(PID.TID 0000.0001) %MON seaice_area_del2             =   1.0953328431463E-08
(PID.TID 0000.0001) %MON seaice_heff_max              =   3.0999857335659E-01
(PID.TID 0000.0001) %MON seaice_heff_min              =   2.9006046243248E-01
(PID.TID 0000.0001) %MON seaice_heff_mean             =   3.0067126525963E-01
(PID.TID 0000.0001) %MON seaice_heff_sd               =   5.0069256034788E-03
(PID.TID 0000.0001) %MON seaice_heff_del2             =   1.2853733586623E-05
(PID.TID 0000.0001) %MON seaice_hsnow_max             =   0.0000000000000E+00
(PID.TID 0000.0001) %MON seaice_hsnow_min             =   0.0000000000000E+00
(PID.TID 0000.0001) %MON seaice_hsnow_mean            =   0.0000000000000E+00
(PID.TID 0000.0001) %MON seaice_hsnow_sd              =   0.0000000000000E+00
(PID.TID 0000.0001) %MON seaice_hsnow_del2            =   0.0000000000000E+00
(PID.TID 0000.0001) // =======================================================
(PID.TID 0000.0001) // End MONITOR SEAICE statistics
(PID.TID 0000.0001) // =======================================================
 Computing Diagnostic #    163  SIuice       Counter:       1   Parms: UU      M1      
           Vector  Mate for  SIuice       Diagnostic #    164  SIvice   exists 
 Computing Diagnostic #    164  SIvice       Counter:       1   Parms: VV      M1      
           Vector  Mate for  SIvice       Diagnostic #    163  SIuice   exists 
 Computing Diagnostic #    149  SIheff       Counter:       1   Parms: SM      M1      
 Computing Diagnostic #    146  SIarea       Counter:       1   Parms: SM      M1      
 Computing Diagnostic #    228  SIshear      Counter:       1   Parms: SM      M1      
 Computing Diagnostic #    233  SIcohes      Counter:       1   Parms: SM      M1      
 Computing Diagnostic #    221  SIsig1       Counter:       1   Parms: SM      M1      
 Computing Diagnostic #    222  SIsig2       Counter:       1   Parms: SM      M1      
 Computing Diagnostic #    231  SIdamage     Counter:       1   Parms: SM      M1      
 Computing Diagnostic #    165  SItaux       Counter:       1   Parms: UU      U1      
           Vector  Mate for  SItaux       Diagnostic #    166  SItauy   exists 
 Computing Diagnostic #    166  SItauy       Counter:       1   Parms: VV      U1      
           Vector  Mate for  SItauy       Diagnostic #    165  SItaux   exists 
 Computing Diagnostic #    133  EXFuwind     Counter:       1   Parms: UM      U1      
 Computing Diagnostic #    134  EXFvwind     Counter:       1   Parms: VM      U1      
(PID.TID 0000.0001)  S/R SEAICE_KRYLOV: Picard iterate / total, KRYLOVgamma_lin, initial norm =       1   1301 0.10000E+00 0.10876E+00
(PID.TID 0000.0001)  S/R SEAICE_KRYLOV: Picard iterate / total =      1 /   1301, Nb. of FGMRES iterations =      1
(PID.TID 0000.0001)  S/R SEAICE_KRYLOV: Picard iterate / total, KRYLOVgamma_lin, initial norm =       2   1302 0.50000E-01 0.14587E-03
(PID.TID 0000.0001)  S/R SEAICE_KRYLOV: Picard iterate / total =      2 /   1302, Nb. of FGMRES iterations =      1
(PID.TID 0000.0001)  S/R SEAICE_KRYLOV: Picard iterate / total, KRYLOVgamma_lin, initial norm =       3   1303 0.50000E-01 0.16319E-04
(PID.TID 0000.0001)  S/R SEAICE_KRYLOV: Picard iterate / total =      3 /   1303, Nb. of FGMRES iterations =      1
(PID.TID 0000.0001)  S/R SEAICE_KRYLOV: Picard iterate / total, KRYLOVgamma_lin, initial norm =       4   1304 0.33333E-01 0.10970E-04
(PID.TID 0000.0001)  S/R SEAICE_KRYLOV: Picard iterate / total =      4 /   1304, Nb. of FGMRES iterations =      1
(PID.TID 0000.0001)  S/R SEAICE_KRYLOV: Picard iterate / total, KRYLOVgamma_lin, initial norm =       5   1305 0.33333E-01 0.52376E-05
(PID.TID 0000.0001)  S/R SEAICE_KRYLOV: Picard iterate / total =      5 /   1305, Nb. of FGMRES iterations =      1
(PID.TID 0000.0001)  S/R SEAICE_KRYLOV: Picard iterate / total, KRYLOVgamma_lin, initial norm =       6   1306 0.33333E-01 0.26370E-05
(PID.TID 0000.0001)  S/R SEAICE_KRYLOV: Picard iterate / total =      6 /   1306, Nb. of FGMRES iterations =      1
(PID.TID 0000.0001)  S/R SEAICE_KRYLOV: Picard iterate / total, KRYLOVgamma_lin, initial norm =       7   1307 0.33333E-01 0.13171E-05
(PID.TID 0000.0001)  S/R SEAICE_KRYLOV: Picard iterate / total =      7 /   1307, Nb. of FGMRES iterations =      1
(PID.TID 0000.0001)  S/R SEAICE_KRYLOV: Picard iterate / total, KRYLOVgamma_lin, initial norm =       8   1308 0.25000E-01 0.65865E-06
(PID.TID 0000.0001)  S/R SEAICE_KRYLOV: Picard iterate / total =      8 /   1308, Nb. of FGMRES iterations =      1
(PID.TID 0000.0001)  S/R SEAICE_KRYLOV: Picard iterate / total, KRYLOVgamma_lin, initial norm =       9   1309 0.20000E-01 0.32932E-06
(PID.TID 0000.0001)  S/R SEAICE_KRYLOV: Picard iterate / total =      9 /   1309, Nb. of FGMRES iterations =      1
(PID.TID 0000.0001)  S/R SEAICE_KRYLOV: Picard iterate / total, KRYLOVgamma_lin, initial norm =      10   1310 0.12500E-01 0.16466E-06
(PID.TID 0000.0001)  S/R SEAICE_KRYLOV: Picard iterate / total =     10 /   1310, Nb. of FGMRES iterations =      1
(PID.TID 0000.0001)  S/R SEAICE_KRYLOV: Picard iterate / total, KRYLOVgamma_lin, initial norm =      11   1311 0.12500E-01 0.82330E-07
(PID.TID 0000.0001)  S/R SEAICE_KRYLOV: Picard iterate / total =     11 /   1311, Nb. of FGMRES iterations =      1
(PID.TID 0000.0001)  S/R SEAICE_KRYLOV: Picard iterate / total, KRYLOVgamma_lin, initial norm =      12   1312 0.12500E-01 0.41165E-07
(PID.TID 0000.0001)  S/R SEAICE_KRYLOV: Picard iterate / total =     12 /   1312, Nb. of FGMRES iterations =      1
(PID.TID 0000.0001)  S/R SEAICE_KRYLOV: Picard iterate / total, KRYLOVgamma_lin, initial norm =      13   1313 0.12500E-01 0.20582E-07
(PID.TID 0000.0001)  S/R SEAICE_KRYLOV: Picard iterate / total =     13 /   1313, Nb. of FGMRES iterations =      1
(PID.TID 0000.0001)  S/R SEAICE_KRYLOV: Picard iterate / total, KRYLOVgamma_lin, initial norm =      14   1314 0.12500E-01 0.10291E-07
(PID.TID 0000.0001)  S/R SEAICE_KRYLOV: Picard iterate / total =     14 /   1314, Nb. of FGMRES iterations =      1
(PID.TID 0000.0001)  S/R SEAICE_KRYLOV: Picard iterate / total, KRYLOVgamma_lin, initial norm =      15   1315 0.12500E-01 0.51456E-08
(PID.TID 0000.0001)  S/R SEAICE_KRYLOV: Picard iterate / total =     15 /   1315, Nb. of FGMRES iterations =      1
(PID.TID 0000.0001)  S/R SEAICE_KRYLOV: Picard iterate / total, KRYLOVgamma_lin, initial norm =      16   1316 0.12500E-01 0.25728E-08
(PID.TID 0000.0001)  S/R SEAICE_KRYLOV: Picard iterate / total =     16 /   1316, Nb. of FGMRES iterations =      1
(PID.TID 0000.0001)  S/R SEAICE_KRYLOV: Picard iterate / total, KRYLOVgamma_lin, initial norm =      17   1317 0.12500E-01 0.12864E-08
(PID.TID 0000.0001)  S/R SEAICE_KRYLOV: Picard iterate / total =     17 /   1317, Nb. of FGMRES iterations =      1
(PID.TID 0000.0001)  S/R SEAICE_KRYLOV: Picard iterate / total, KRYLOVgamma_lin, initial norm =      18   1318 0.12500E-01 0.64320E-09
(PID.TID 0000.0001)  S/R SEAICE_KRYLOV: Picard iterate / total =     18 /   1318, Nb. of FGMRES iterations =      1
(PID.TID 0000.0001)  S/R SEAICE_KRYLOV: Picard iterate / total, KRYLOVgamma_lin, initial norm =      19   1319 0.12500E-01 0.32160E-09
(PID.TID 0000.0001)  S/R SEAICE_KRYLOV: Picard iterate / total =     19 /   1319, Nb. of FGMRES iterations =      1
(PID.TID 0000.0001)  S/R SEAICE_KRYLOV: Picard iterate / total, KRYLOVgamma_lin, initial norm =      20   1320 0.12500E-01 0.16080E-09
(PID.TID 0000.0001)  S/R SEAICE_KRYLOV: Picard iterate / total =     20 /   1320, Nb. of FGMRES iterations =      1
(PID.TID 0000.0001)  S/R SEAICE_KRYLOV: Picard iterate / total, KRYLOVgamma_lin, initial norm =      21   1321 0.12500E-01 0.80400E-10
(PID.TID 0000.0001)  S/R SEAICE_KRYLOV: Picard iterate / total =     21 /   1321, Nb. of FGMRES iterations =      1
(PID.TID 0000.0001)  S/R SEAICE_KRYLOV: Picard iterate / total, KRYLOVgamma_lin, initial norm =      22   1322 0.12500E-01 0.40200E-10
(PID.TID 0000.0001)  S/R SEAICE_KRYLOV: Picard iterate / total =     22 /   1322, Nb. of FGMRES iterations =      1
(PID.TID 0000.0001)  S/R SEAICE_KRYLOV: Picard iterate / total, KRYLOVgamma_lin, initial norm =      23   1323 0.12500E-01 0.20100E-10
(PID.TID 0000.0001)  S/R SEAICE_KRYLOV: Picard iterate / total =     23 /   1323, Nb. of FGMRES iterations =      1
(PID.TID 0000.0001)  S/R SEAICE_KRYLOV: Picard iterate / total, KRYLOVgamma_lin, initial norm =      24   1324 0.12500E-01 0.10050E-10
(PID.TID 0000.0001)  S/R SEAICE_KRYLOV: Picard iterate / total =     24 /   1324, Nb. of FGMRES iterations =      1
(PID.TID 0000.0001)  S/R SEAICE_KRYLOV: Picard iterate / total, KRYLOVgamma_lin, initial norm =      25   1325 0.12500E-01 0.50250E-11
(PID.TID 0000.0001)  S/R SEAICE_KRYLOV: Picard iterate / total =     25 /   1325, Nb. of FGMRES iterations =      1
(PID.TID 0000.0001)  S/R SEAICE_KRYLOV: Picard iterate / total, KRYLOVgamma_lin, initial norm =      26   1326 0.12500E-01 0.25125E-11
(PID.TID 0000.0001)  S/R SEAICE_KRYLOV: Picard iterate / total =     26 /   1326, Nb. of FGMRES iterations =      1
(PID.TID 0000.0001)  S/R SEAICE_KRYLOV: Picard iterate / total, KRYLOVgamma_lin, initial norm =      27   1327 0.12500E-01 0.12562E-11
(PID.TID 0000.0001)  S/R SEAICE_KRYLOV: Picard iterate / total =     27 /   1327, Nb. of FGMRES iterations =      1
(PID.TID 0000.0001)  S/R SEAICE_KRYLOV: Picard iterate / total, KRYLOVgamma_lin, initial norm =      28   1328 0.12500E-01 0.62813E-12
(PID.TID 0000.0001)  S/R SEAICE_KRYLOV: Picard iterate / total =     28 /   1328, Nb. of FGMRES iterations =      1
(PID.TID 0000.0001)  S/R SEAICE_KRYLOV: Picard iterate / total, KRYLOVgamma_lin, initial norm =      29   1329 0.12500E-01 0.31406E-12
(PID.TID 0000.0001)  S/R SEAICE_KRYLOV: Picard iterate / total =     29 /   1329, Nb. of FGMRES iterations =      1
(PID.TID 0000.0001)  S/R SEAICE_KRYLOV: Picard iterate / total, KRYLOVgamma_lin, initial norm =      30   1330 0.12500E-01 0.15703E-12
(PID.TID 0000.0001)  S/R SEAICE_KRYLOV: Picard iterate / total =     30 /   1330, Nb. of FGMRES iterations =      1
(PID.TID 0000.0001)  S/R SEAICE_KRYLOV: Picard iterate / total, KRYLOVgamma_lin, final   norm =      31   1331 0.12500E-01 0.78516E-13
(PID.TID 0000.0001)  // =======================================================
(PID.TID 0000.0001)  // Begin KRYLOV statistics
(PID.TID 0000.0001)  // =======================================================
(PID.TID 0000.0001)  %KRYLOV_MON: time step              =         14
(PID.TID 0000.0001)  %KRYLOV_MON: Nb. of time steps      =          1
(PID.TID 0000.0001)  %KRYLOV_MON: Nb. of Picard steps    =         31
(PID.TID 0000.0001)  %KRYLOV_MON: Nb. of Krylov steps    =         30
(PID.TID 0000.0001)  %KRYLOV_MON: Nb. of Picard failures =          0
(PID.TID 0000.0001)  %KRYLOV_MON: Nb. of Krylov failures =          0
(PID.TID 0000.0001)  // =======================================================
(PID.TID 0000.0001)  // End KRYLOV statistics
(PID.TID 0000.0001)  // =======================================================
(PID.TID 0000.0001)  S/R SEAICE_KRYLOV: Total number FGMRES iterations =     30 in timestep         14
(PID.TID 0000.0001) // =======================================================
(PID.TID 0000.0001) // Begin MONITOR dynamic field statistics
(PID.TID 0000.0001) // =======================================================
(PID.TID 0000.0001) %MON time_tsnumber                =                    14
(PID.TID 0000.0001) %MON time_secondsf                =   3.5000000000000E+01
(PID.TID 0000.0001) %MON dynstat_eta_max              =   0.0000000000000E+00
(PID.TID 0000.0001) %MON dynstat_eta_min              =   0.0000000000000E+00
(PID.TID 0000.0001) %MON dynstat_eta_mean             =   0.0000000000000E+00
(PID.TID 0000.0001) %MON dynstat_eta_sd               =   0.0000000000000E+00
(PID.TID 0000.0001) %MON dynstat_eta_del2             =   0.0000000000000E+00
(PID.TID 0000.0001) %MON dynstat_uvel_max             =   9.8437500000000E-03
(PID.TID 0000.0001) %MON dynstat_uvel_min             =  -9.8437500000000E-03
(PID.TID 0000.0001) %MON dynstat_uvel_mean            =   0.0000000000000E+00
(PID.TID 0000.0001) %MON dynstat_uvel_sd              =   5.7727978755972E-03
(PID.TID 0000.0001) %MON dynstat_uvel_del2            =   1.0089048364799E-20
(PID.TID 0000.0001) %MON dynstat_vvel_max             =   9.8437500000000E-03
(PID.TID 0000.0001) %MON dynstat_vvel_min             =  -9.8437500000000E-03
(PID.TID 0000.0001) %MON dynstat_vvel_mean            =   0.0000000000000E+00
(PID.TID 0000.0001) %MON dynstat_vvel_sd              =   5.7727978755972E-03
(PID.TID 0000.0001) %MON dynstat_vvel_del2            =   1.0089048364799E-20
(PID.TID 0000.0001) %MON dynstat_wvel_max             =   1.1914062500000E-05
(PID.TID 0000.0001) %MON dynstat_wvel_min             =  -1.1914062500000E-05
(PID.TID 0000.0001) %MON dynstat_wvel_mean            =   3.4694469519536E-25
(PID.TID 0000.0001) %MON dynstat_wvel_sd              =   1.7200872247780E-06
(PID.TID 0000.0001) %MON dynstat_wvel_del2            =   2.8187489626940E-08
(PID.TID 0000.0001) %MON dynstat_theta_max            =  -1.6200000000000E+00
(PID.TID 0000.0001) %MON dynstat_theta_min            =  -1.6200000000000E+00
(PID.TID 0000.0001) %MON dynstat_theta_mean           =  -1.6200000000000E+00
(PID.TID 0000.0001) %MON dynstat_theta_sd             =   0.0000000000000E+00
(PID.TID 0000.0001) %MON dynstat_theta_del2           =   0.0000000000000E+00
(PID.TID 0000.0001) %MON dynstat_salt_max             =   3.0000000000000E+01
(PID.TID 0000.0001) %MON dynstat_salt_min             =   3.0000000000000E+01
(PID.TID 0000.0001) %MON dynstat_salt_mean            =   3.0000000000000E+01
(PID.TID 0000.0001) %MON dynstat_salt_sd              =   0.0000000000000E+00
(PID.TID 0000.0001) %MON dynstat_salt_del2            =   0.0000000000000E+00
(PID.TID 0000.0001) %MON trAdv_CFL_u_max              =   3.0761718750000E-06
(PID.TID 0000.0001) %MON trAdv_CFL_v_max              =   3.0761718750000E-06
(PID.TID 0000.0001) %MON trAdv_CFL_w_max              =   2.9785156250000E-06
(PID.TID 0000.0001) %MON advcfl_uvel_max              =   3.0761718750000E-06
(PID.TID 0000.0001) %MON advcfl_vvel_max              =   3.0761718750000E-06
(PID.TID 0000.0001) %MON advcfl_wvel_max              =   5.9570312500000E-06
(PID.TID 0000.0001) %MON advcfl_W_hf_max              =   0.0000000000000E+00
(PID.TID 0000.0001) %MON pe_b_mean                    =   0.0000000000000E+00
(PID.TID 0000.0001) %MON ke_max                       =   9.0844726562500E-05
(PID.TID 0000.0001) %MON ke_mean                      =   3.2804489135742E-05
(PID.TID 0000.0001) %MON ke_vol                       =   2.6214400000000E+12
(PID.TID 0000.0001) %MON vort_r_min                   =  -7.8125000000000E-08
(PID.TID 0000.0001) %MON vort_r_max                   =   1.2304687500000E-06
(PID.TID 0000.0001) %MON vort_a_mean                  =   1.4856000000000E-04
(PID.TID 0000.0001) %MON vort_a_sd                    =   1.5312918562496E-06
(PID.TID 0000.0001) %MON vort_p_mean                  =   1.5552375000000E-04
(PID.TID 0000.0001) %MON vort_p_sd                    =   5.5921473110222E-05
(PID.TID 0000.0001) %MON surfExpan_theta_mean         =   0.0000000000000E+00
(PID.TID 0000.0001) %MON surfExpan_salt_mean          =   1.3877787807814E-23
(PID.TID 0000.0001) // =======================================================
(PID.TID 0000.0001) // End MONITOR dynamic field statistics
(PID.TID 0000.0001) // =======================================================
(PID.TID 0000.0001) // =======================================================
(PID.TID 0000.0001) // Begin MONITOR SEAICE statistics
(PID.TID 0000.0001) // =======================================================
(PID.TID 0000.0001) %MON seaice_tsnumber              =                    14
(PID.TID 0000.0001) %MON seaice_time_sec              =   3.5000000000000E+01
(PID.TID 0000.0001) %MON seaice_uice_max              =   2.3951587940686E-02
(PID.TID 0000.0001) %MON seaice_uice_min              =  -2.4401036321951E-02
(PID.TID 0000.0001) %MON seaice_uice_mean             =  -7.8781921817187E-07
(PID.TID 0000.0001) %MON seaice_uice_sd               =   1.0310659938269E-02
(PID.TID 0000.0001) %MON seaice_uice_del2             =   3.2783682338663E-06
(PID.TID 0000.0001) %MON seaice_vice_max              =   2.3395447436146E-02
(PID.TID 0000.0001) %MON seaice_vice_min              =  -2.3662878172443E-02
(PID.TID 0000.0001) %MON seaice_vice_mean             =   2.6615478482169E-06
(PID.TID 0000.0001) %MON seaice_vice_sd               =   1.0262368139204E-02
(PID.TID 0000.0001) %MON seaice_vice_del2             =   3.2937333754361E-06
(PID.TID 0000.0001) %MON seaice_area_max              =   1.0000000000000E+00
(PID.TID 0000.0001) %MON seaice_area_min              =   9.9999260631080E-01
(PID.TID 0000.0001) %MON seaice_area_mean             =   9.9999956837719E-01
(PID.TID 0000.0001) %MON seaice_area_sd               =   1.0126452625355E-06
(PID.TID 0000.0001) %MON seaice_area_del2             =   1.2777438304755E-08
(PID.TID 0000.0001) %MON seaice_heff_max              =   3.0999855830754E-01
(PID.TID 0000.0001) %MON seaice_heff_min              =   2.9006044675044E-01
(PID.TID 0000.0001) %MON seaice_heff_mean             =   3.0067126525963E-01
(PID.TID 0000.0001) %MON seaice_heff_sd               =   5.0069262417904E-03
(PID.TID 0000.0001) %MON seaice_heff_del2             =   1.2853730712654E-05
(PID.TID 0000.0001) %MON seaice_hsnow_max             =   0.0000000000000E+00
(PID.TID 0000.0001) %MON seaice_hsnow_min             =   0.0000000000000E+00
(PID.TID 0000.0001) %MON seaice_hsnow_mean            =   0.0000000000000E+00
(PID.TID 0000.0001) %MON seaice_hsnow_sd              =   0.0000000000000E+00
(PID.TID 0000.0001) %MON seaice_hsnow_del2            =   0.0000000000000E+00
(PID.TID 0000.0001) // =======================================================
(PID.TID 0000.0001) // End MONITOR SEAICE statistics
(PID.TID 0000.0001) // =======================================================
 Computing Diagnostic #    163  SIuice       Counter:       1   Parms: UU      M1      
           Vector  Mate for  SIuice       Diagnostic #    164  SIvice   exists 
 Computing Diagnostic #    164  SIvice       Counter:       1   Parms: VV      M1      
           Vector  Mate for  SIvice       Diagnostic #    163  SIuice   exists 
 Computing Diagnostic #    149  SIheff       Counter:       1   Parms: SM      M1      
 Computing Diagnostic #    146  SIarea       Counter:       1   Parms: SM      M1      
 Computing Diagnostic #    228  SIshear      Counter:       1   Parms: SM      M1      
 Computing Diagnostic #    233  SIcohes      Counter:       1   Parms: SM      M1      
 Computing Diagnostic #    221  SIsig1       Counter:       1   Parms: SM      M1      
 Computing Diagnostic #    222  SIsig2       Counter:       1   Parms: SM      M1      
 Computing Diagnostic #    231  SIdamage     Counter:       1   Parms: SM      M1      
 Computing Diagnostic #    165  SItaux       Counter:       1   Parms: UU      U1      
           Vector  Mate for  SItaux       Diagnostic #    166  SItauy   exists 
 Computing Diagnostic #    166  SItauy       Counter:       1   Parms: VV      U1      
           Vector  Mate for  SItauy       Diagnostic #    165  SItaux   exists 
 Computing Diagnostic #    133  EXFuwind     Counter:       1   Parms: UM      U1      
 Computing Diagnostic #    134  EXFvwind     Counter:       1   Parms: VM      U1      
(PID.TID 0000.0001)  S/R SEAICE_KRYLOV: Picard iterate / total, KRYLOVgamma_lin, initial norm =       1   1401 0.10000E+00 0.10836E+00
(PID.TID 0000.0001)  S/R SEAICE_KRYLOV: Picard iterate / total =      1 /   1401, Nb. of FGMRES iterations =      1
(PID.TID 0000.0001)  S/R SEAICE_KRYLOV: Picard iterate / total, KRYLOVgamma_lin, initial norm =       2   1402 0.50000E-01 0.13489E-03
(PID.TID 0000.0001)  S/R SEAICE_KRYLOV: Picard iterate / total =      2 /   1402, Nb. of FGMRES iterations =      1
(PID.TID 0000.0001)  S/R SEAICE_KRYLOV: Picard iterate / total, KRYLOVgamma_lin, initial norm =       3   1403 0.50000E-01 0.15465E-04
(PID.TID 0000.0001)  S/R SEAICE_KRYLOV: Picard iterate / total =      3 /   1403, Nb. of FGMRES iterations =      1
(PID.TID 0000.0001)  S/R SEAICE_KRYLOV: Picard iterate / total, KRYLOVgamma_lin, initial norm =       4   1404 0.33333E-01 0.10149E-04
(PID.TID 0000.0001)  S/R SEAICE_KRYLOV: Picard iterate / total =      4 /   1404, Nb. of FGMRES iterations =      1
(PID.TID 0000.0001)  S/R SEAICE_KRYLOV: Picard iterate / total, KRYLOVgamma_lin, initial norm =       5   1405 0.33333E-01 0.48623E-05
(PID.TID 0000.0001)  S/R SEAICE_KRYLOV: Picard iterate / total =      5 /   1405, Nb. of FGMRES iterations =      1
(PID.TID 0000.0001)  S/R SEAICE_KRYLOV: Picard iterate / total, KRYLOVgamma_lin, initial norm =       6   1406 0.33333E-01 0.24464E-05
(PID.TID 0000.0001)  S/R SEAICE_KRYLOV: Picard iterate / total =      6 /   1406, Nb. of FGMRES iterations =      1
(PID.TID 0000.0001)  S/R SEAICE_KRYLOV: Picard iterate / total, KRYLOVgamma_lin, initial norm =       7   1407 0.33333E-01 0.12221E-05
(PID.TID 0000.0001)  S/R SEAICE_KRYLOV: Picard iterate / total =      7 /   1407, Nb. of FGMRES iterations =      1
(PID.TID 0000.0001)  S/R SEAICE_KRYLOV: Picard iterate / total, KRYLOVgamma_lin, initial norm =       8   1408 0.25000E-01 0.61112E-06
(PID.TID 0000.0001)  S/R SEAICE_KRYLOV: Picard iterate / total =      8 /   1408, Nb. of FGMRES iterations =      1
(PID.TID 0000.0001)  S/R SEAICE_KRYLOV: Picard iterate / total, KRYLOVgamma_lin, initial norm =       9   1409 0.20000E-01 0.30555E-06
(PID.TID 0000.0001)  S/R SEAICE_KRYLOV: Picard iterate / total =      9 /   1409, Nb. of FGMRES iterations =      1
(PID.TID 0000.0001)  S/R SEAICE_KRYLOV: Picard iterate / total, KRYLOVgamma_lin, initial norm =      10   1410 0.12500E-01 0.15278E-06
(PID.TID 0000.0001)  S/R SEAICE_KRYLOV: Picard iterate / total =     10 /   1410, Nb. of FGMRES iterations =      1
(PID.TID 0000.0001)  S/R SEAICE_KRYLOV: Picard iterate / total, KRYLOVgamma_lin, initial norm =      11   1411 0.12500E-01 0.76388E-07
(PID.TID 0000.0001)  S/R SEAICE_KRYLOV: Picard iterate / total =     11 /   1411, Nb. of FGMRES iterations =      1
(PID.TID 0000.0001)  S/R SEAICE_KRYLOV: Picard iterate / total, KRYLOVgamma_lin, initial norm =      12   1412 0.12500E-01 0.38194E-07
(PID.TID 0000.0001)  S/R SEAICE_KRYLOV: Picard iterate / total =     12 /   1412, Nb. of FGMRES iterations =      1
(PID.TID 0000.0001)  S/R SEAICE_KRYLOV: Picard iterate / total, KRYLOVgamma_lin, initial norm =      13   1413 0.12500E-01 0.19097E-07
(PID.TID 0000.0001)  S/R SEAICE_KRYLOV: Picard iterate / total =     13 /   1413, Nb. of FGMRES iterations =      1
(PID.TID 0000.0001)  S/R SEAICE_KRYLOV: Picard iterate / total, KRYLOVgamma_lin, initial norm =      14   1414 0.12500E-01 0.95485E-08
(PID.TID 0000.0001)  S/R SEAICE_KRYLOV: Picard iterate / total =     14 /   1414, Nb. of FGMRES iterations =      1
(PID.TID 0000.0001)  S/R SEAICE_KRYLOV: Picard iterate / total, KRYLOVgamma_lin, initial norm =      15   1415 0.12500E-01 0.47743E-08
(PID.TID 0000.0001)  S/R SEAICE_KRYLOV: Picard iterate / total =     15 /   1415, Nb. of FGMRES iterations =      1
(PID.TID 0000.0001)  S/R SEAICE_KRYLOV: Picard iterate / total, KRYLOVgamma_lin, initial norm =      16   1416 0.12500E-01 0.23871E-08
(PID.TID 0000.0001)  S/R SEAICE_KRYLOV: Picard iterate / total =     16 /   1416, Nb. of FGMRES iterations =      1
(PID.TID 0000.0001)  S/R SEAICE_KRYLOV: Picard iterate / total, KRYLOVgamma_lin, initial norm =      17   1417 0.12500E-01 0.11936E-08
(PID.TID 0000.0001)  S/R SEAICE_KRYLOV: Picard iterate / total =     17 /   1417, Nb. of FGMRES iterations =      1
(PID.TID 0000.0001)  S/R SEAICE_KRYLOV: Picard iterate / total, KRYLOVgamma_lin, initial norm =      18   1418 0.12500E-01 0.59678E-09
(PID.TID 0000.0001)  S/R SEAICE_KRYLOV: Picard iterate / total =     18 /   1418, Nb. of FGMRES iterations =      1
(PID.TID 0000.0001)  S/R SEAICE_KRYLOV: Picard iterate / total, KRYLOVgamma_lin, initial norm =      19   1419 0.12500E-01 0.29839E-09
(PID.TID 0000.0001)  S/R SEAICE_KRYLOV: Picard iterate / total =     19 /   1419, Nb. of FGMRES iterations =      1
(PID.TID 0000.0001)  S/R SEAICE_KRYLOV: Picard iterate / total, KRYLOVgamma_lin, initial norm =      20   1420 0.12500E-01 0.14920E-09
(PID.TID 0000.0001)  S/R SEAICE_KRYLOV: Picard iterate / total =     20 /   1420, Nb. of FGMRES iterations =      1
(PID.TID 0000.0001)  S/R SEAICE_KRYLOV: Picard iterate / total, KRYLOVgamma_lin, initial norm =      21   1421 0.12500E-01 0.74598E-10
(PID.TID 0000.0001)  S/R SEAICE_KRYLOV: Picard iterate / total =     21 /   1421, Nb. of FGMRES iterations =      1
(PID.TID 0000.0001)  S/R SEAICE_KRYLOV: Picard iterate / total, KRYLOVgamma_lin, initial norm =      22   1422 0.12500E-01 0.37299E-10
(PID.TID 0000.0001)  S/R SEAICE_KRYLOV: Picard iterate / total =     22 /   1422, Nb. of FGMRES iterations =      1
(PID.TID 0000.0001)  S/R SEAICE_KRYLOV: Picard iterate / total, KRYLOVgamma_lin, initial norm =      23   1423 0.12500E-01 0.18649E-10
(PID.TID 0000.0001)  S/R SEAICE_KRYLOV: Picard iterate / total =     23 /   1423, Nb. of FGMRES iterations =      1
(PID.TID 0000.0001)  S/R SEAICE_KRYLOV: Picard iterate / total, KRYLOVgamma_lin, initial norm =      24   1424 0.12500E-01 0.93247E-11
(PID.TID 0000.0001)  S/R SEAICE_KRYLOV: Picard iterate / total =     24 /   1424, Nb. of FGMRES iterations =      1
(PID.TID 0000.0001)  S/R SEAICE_KRYLOV: Picard iterate / total, KRYLOVgamma_lin, initial norm =      25   1425 0.12500E-01 0.46624E-11
(PID.TID 0000.0001)  S/R SEAICE_KRYLOV: Picard iterate / total =     25 /   1425, Nb. of FGMRES iterations =      1
(PID.TID 0000.0001)  S/R SEAICE_KRYLOV: Picard iterate / total, KRYLOVgamma_lin, initial norm =      26   1426 0.12500E-01 0.23312E-11
(PID.TID 0000.0001)  S/R SEAICE_KRYLOV: Picard iterate / total =     26 /   1426, Nb. of FGMRES iterations =      1
(PID.TID 0000.0001)  S/R SEAICE_KRYLOV: Picard iterate / total, KRYLOVgamma_lin, initial norm =      27   1427 0.12500E-01 0.11656E-11
(PID.TID 0000.0001)  S/R SEAICE_KRYLOV: Picard iterate / total =     27 /   1427, Nb. of FGMRES iterations =      1
(PID.TID 0000.0001)  S/R SEAICE_KRYLOV: Picard iterate / total, KRYLOVgamma_lin, initial norm =      28   1428 0.12500E-01 0.58280E-12
(PID.TID 0000.0001)  S/R SEAICE_KRYLOV: Picard iterate / total =     28 /   1428, Nb. of FGMRES iterations =      1
(PID.TID 0000.0001)  S/R SEAICE_KRYLOV: Picard iterate / total, KRYLOVgamma_lin, initial norm =      29   1429 0.12500E-01 0.29140E-12
(PID.TID 0000.0001)  S/R SEAICE_KRYLOV: Picard iterate / total =     29 /   1429, Nb. of FGMRES iterations =      1
(PID.TID 0000.0001)  S/R SEAICE_KRYLOV: Picard iterate / total, KRYLOVgamma_lin, initial norm =      30   1430 0.12500E-01 0.14570E-12
(PID.TID 0000.0001)  S/R SEAICE_KRYLOV: Picard iterate / total =     30 /   1430, Nb. of FGMRES iterations =      1
(PID.TID 0000.0001)  S/R SEAICE_KRYLOV: Picard iterate / total, KRYLOVgamma_lin, final   norm =      31   1431 0.12500E-01 0.72849E-13
(PID.TID 0000.0001)  // =======================================================
(PID.TID 0000.0001)  // Begin KRYLOV statistics
(PID.TID 0000.0001)  // =======================================================
(PID.TID 0000.0001)  %KRYLOV_MON: time step              =         15
(PID.TID 0000.0001)  %KRYLOV_MON: Nb. of time steps      =          1
(PID.TID 0000.0001)  %KRYLOV_MON: Nb. of Picard steps    =         31
(PID.TID 0000.0001)  %KRYLOV_MON: Nb. of Krylov steps    =         30
(PID.TID 0000.0001)  %KRYLOV_MON: Nb. of Picard failures =          0
(PID.TID 0000.0001)  %KRYLOV_MON: Nb. of Krylov failures =          0
(PID.TID 0000.0001)  // =======================================================
(PID.TID 0000.0001)  // End KRYLOV statistics
(PID.TID 0000.0001)  // =======================================================
(PID.TID 0000.0001)  S/R SEAICE_KRYLOV: Total number FGMRES iterations =     30 in timestep         15
(PID.TID 0000.0001) // =======================================================
(PID.TID 0000.0001) // Begin MONITOR dynamic field statistics
(PID.TID 0000.0001) // =======================================================
(PID.TID 0000.0001) %MON time_tsnumber                =                    15
(PID.TID 0000.0001) %MON time_secondsf                =   3.7500000000000E+01
(PID.TID 0000.0001) %MON dynstat_eta_max              =   0.0000000000000E+00
(PID.TID 0000.0001) %MON dynstat_eta_min              =   0.0000000000000E+00
(PID.TID 0000.0001) %MON dynstat_eta_mean             =   0.0000000000000E+00
(PID.TID 0000.0001) %MON dynstat_eta_sd               =   0.0000000000000E+00
(PID.TID 0000.0001) %MON dynstat_eta_del2             =   0.0000000000000E+00
(PID.TID 0000.0001) %MON dynstat_uvel_max             =   9.8437500000000E-03
(PID.TID 0000.0001) %MON dynstat_uvel_min             =  -9.8437500000000E-03
(PID.TID 0000.0001) %MON dynstat_uvel_mean            =   0.0000000000000E+00
(PID.TID 0000.0001) %MON dynstat_uvel_sd              =   5.7727978755972E-03
(PID.TID 0000.0001) %MON dynstat_uvel_del2            =   1.0089048364799E-20
(PID.TID 0000.0001) %MON dynstat_vvel_max             =   9.8437500000000E-03
(PID.TID 0000.0001) %MON dynstat_vvel_min             =  -9.8437500000000E-03
(PID.TID 0000.0001) %MON dynstat_vvel_mean            =   0.0000000000000E+00
(PID.TID 0000.0001) %MON dynstat_vvel_sd              =   5.7727978755972E-03
(PID.TID 0000.0001) %MON dynstat_vvel_del2            =   1.0089048364799E-20
(PID.TID 0000.0001) %MON dynstat_wvel_max             =   1.1914062500000E-05
(PID.TID 0000.0001) %MON dynstat_wvel_min             =  -1.1914062500000E-05
(PID.TID 0000.0001) %MON dynstat_wvel_mean            =   3.4694469519536E-25
(PID.TID 0000.0001) %MON dynstat_wvel_sd              =   1.7200872247780E-06
(PID.TID 0000.0001) %MON dynstat_wvel_del2            =   2.8187489626940E-08
(PID.TID 0000.0001) %MON dynstat_theta_max            =  -1.6200000000000E+00
(PID.TID 0000.0001) %MON dynstat_theta_min            =  -1.6200000000000E+00
(PID.TID 0000.0001) %MON dynstat_theta_mean           =  -1.6200000000000E+00
(PID.TID 0000.0001) %MON dynstat_theta_sd             =   0.0000000000000E+00
(PID.TID 0000.0001) %MON dynstat_theta_del2           =   0.0000000000000E+00
(PID.TID 0000.0001) %MON dynstat_salt_max             =   3.0000000000000E+01
(PID.TID 0000.0001) %MON dynstat_salt_min             =   3.0000000000000E+01
(PID.TID 0000.0001) %MON dynstat_salt_mean            =   3.0000000000000E+01
(PID.TID 0000.0001) %MON dynstat_salt_sd              =   0.0000000000000E+00
(PID.TID 0000.0001) %MON dynstat_salt_del2            =   0.0000000000000E+00
(PID.TID 0000.0001) %MON trAdv_CFL_u_max              =   3.0761718750000E-06
(PID.TID 0000.0001) %MON trAdv_CFL_v_max              =   3.0761718750000E-06
(PID.TID 0000.0001) %MON trAdv_CFL_w_max              =   2.9785156250000E-06
(PID.TID 0000.0001) %MON advcfl_uvel_max              =   3.0761718750000E-06
(PID.TID 0000.0001) %MON advcfl_vvel_max              =   3.0761718750000E-06
(PID.TID 0000.0001) %MON advcfl_wvel_max              =   5.9570312500000E-06
(PID.TID 0000.0001) %MON advcfl_W_hf_max              =   0.0000000000000E+00
(PID.TID 0000.0001) %MON pe_b_mean                    =   0.0000000000000E+00
(PID.TID 0000.0001) %MON ke_max                       =   9.0844726562500E-05
(PID.TID 0000.0001) %MON ke_mean                      =   3.2804489135742E-05
(PID.TID 0000.0001) %MON ke_vol                       =   2.6214400000000E+12
(PID.TID 0000.0001) %MON vort_r_min                   =  -7.8125000000000E-08
(PID.TID 0000.0001) %MON vort_r_max                   =   1.2304687500000E-06
(PID.TID 0000.0001) %MON vort_a_mean                  =   1.4856000000000E-04
(PID.TID 0000.0001) %MON vort_a_sd                    =   1.5312918562496E-06
(PID.TID 0000.0001) %MON vort_p_mean                  =   1.5552375000000E-04
(PID.TID 0000.0001) %MON vort_p_sd                    =   5.5921473110222E-05
(PID.TID 0000.0001) %MON surfExpan_theta_mean         =   0.0000000000000E+00
(PID.TID 0000.0001) %MON surfExpan_salt_mean          =   1.3877787807814E-23
(PID.TID 0000.0001) // =======================================================
(PID.TID 0000.0001) // End MONITOR dynamic field statistics
(PID.TID 0000.0001) // =======================================================
(PID.TID 0000.0001) // =======================================================
(PID.TID 0000.0001) // Begin MONITOR SEAICE statistics
(PID.TID 0000.0001) // =======================================================
(PID.TID 0000.0001) %MON seaice_tsnumber              =                    15
(PID.TID 0000.0001) %MON seaice_time_sec              =   3.7500000000000E+01
(PID.TID 0000.0001) %MON seaice_uice_max              =   2.5627889670335E-02
(PID.TID 0000.0001) %MON seaice_uice_min              =  -2.6087240957967E-02
(PID.TID 0000.0001) %MON seaice_uice_mean             =  -8.6600182686231E-07
(PID.TID 0000.0001) %MON seaice_uice_sd               =   1.1026772096482E-02
(PID.TID 0000.0001) %MON seaice_uice_del2             =   3.5026569892170E-06
(PID.TID 0000.0001) %MON seaice_vice_max              =   2.5026199725385E-02
(PID.TID 0000.0001) %MON seaice_vice_min              =  -2.5310073389385E-02
(PID.TID 0000.0001) %MON seaice_vice_mean             =   2.8487272868067E-06
(PID.TID 0000.0001) %MON seaice_vice_sd               =   1.0975449302378E-02
(PID.TID 0000.0001) %MON seaice_vice_del2             =   3.5197682542347E-06
(PID.TID 0000.0001) %MON seaice_area_max              =   1.0000000000000E+00
(PID.TID 0000.0001) %MON seaice_area_min              =   9.9999153025713E-01
(PID.TID 0000.0001) %MON seaice_area_mean             =   9.9999950825013E-01
(PID.TID 0000.0001) %MON seaice_area_sd               =   1.1615085718305E-06
(PID.TID 0000.0001) %MON seaice_area_del2             =   1.4734240568237E-08
(PID.TID 0000.0001) %MON seaice_heff_max              =   3.0999854222178E-01
(PID.TID 0000.0001) %MON seaice_heff_min              =   2.9006043001438E-01
(PID.TID 0000.0001) %MON seaice_heff_mean             =   3.0067126525963E-01
(PID.TID 0000.0001) %MON seaice_heff_sd               =   5.0069269492107E-03
(PID.TID 0000.0001) %MON seaice_heff_del2             =   1.2853727763520E-05
(PID.TID 0000.0001) %MON seaice_hsnow_max             =   0.0000000000000E+00
(PID.TID 0000.0001) %MON seaice_hsnow_min             =   0.0000000000000E+00
(PID.TID 0000.0001) %MON seaice_hsnow_mean            =   0.0000000000000E+00
(PID.TID 0000.0001) %MON seaice_hsnow_sd              =   0.0000000000000E+00
(PID.TID 0000.0001) %MON seaice_hsnow_del2            =   0.0000000000000E+00
(PID.TID 0000.0001) // =======================================================
(PID.TID 0000.0001) // End MONITOR SEAICE statistics
(PID.TID 0000.0001) // =======================================================
 Computing Diagnostic #    163  SIuice       Counter:       1   Parms: UU      M1      
           Vector  Mate for  SIuice       Diagnostic #    164  SIvice   exists 
 Computing Diagnostic #    164  SIvice       Counter:       1   Parms: VV      M1      
           Vector  Mate for  SIvice       Diagnostic #    163  SIuice   exists 
 Computing Diagnostic #    149  SIheff       Counter:       1   Parms: SM      M1      
 Computing Diagnostic #    146  SIarea       Counter:       1   Parms: SM      M1      
 Computing Diagnostic #    228  SIshear      Counter:       1   Parms: SM      M1      
 Computing Diagnostic #    233  SIcohes      Counter:       1   Parms: SM      M1      
 Computing Diagnostic #    221  SIsig1       Counter:       1   Parms: SM      M1      
 Computing Diagnostic #    222  SIsig2       Counter:       1   Parms: SM      M1      
 Computing Diagnostic #    231  SIdamage     Counter:       1   Parms: SM      M1      
 Computing Diagnostic #    165  SItaux       Counter:       1   Parms: UU      U1      
           Vector  Mate for  SItaux       Diagnostic #    166  SItauy   exists 
 Computing Diagnostic #    166  SItauy       Counter:       1   Parms: VV      U1      
           Vector  Mate for  SItauy       Diagnostic #    165  SItaux   exists 
 Computing Diagnostic #    133  EXFuwind     Counter:       1   Parms: UM      U1      
 Computing Diagnostic #    134  EXFvwind     Counter:       1   Parms: VM      U1      
(PID.TID 0000.0001)  S/R SEAICE_KRYLOV: Picard iterate / total, KRYLOVgamma_lin, initial norm =       1   1501 0.10000E+00 0.10797E+00
(PID.TID 0000.0001)  S/R SEAICE_KRYLOV: Picard iterate / total =      1 /   1501, Nb. of FGMRES iterations =      1
(PID.TID 0000.0001)  S/R SEAICE_KRYLOV: Picard iterate / total, KRYLOVgamma_lin, initial norm =       2   1502 0.50000E-01 0.12484E-03
(PID.TID 0000.0001)  S/R SEAICE_KRYLOV: Picard iterate / total =      2 /   1502, Nb. of FGMRES iterations =      1
(PID.TID 0000.0001)  S/R SEAICE_KRYLOV: Picard iterate / total, KRYLOVgamma_lin, initial norm =       3   1503 0.50000E-01 0.14574E-04
(PID.TID 0000.0001)  S/R SEAICE_KRYLOV: Picard iterate / total =      3 /   1503, Nb. of FGMRES iterations =      1
(PID.TID 0000.0001)  S/R SEAICE_KRYLOV: Picard iterate / total, KRYLOVgamma_lin, initial norm =       4   1504 0.33333E-01 0.93794E-05
(PID.TID 0000.0001)  S/R SEAICE_KRYLOV: Picard iterate / total =      4 /   1504, Nb. of FGMRES iterations =      1
(PID.TID 0000.0001)  S/R SEAICE_KRYLOV: Picard iterate / total, KRYLOVgamma_lin, initial norm =       5   1505 0.33333E-01 0.45075E-05
(PID.TID 0000.0001)  S/R SEAICE_KRYLOV: Picard iterate / total =      5 /   1505, Nb. of FGMRES iterations =      1
(PID.TID 0000.0001)  S/R SEAICE_KRYLOV: Picard iterate / total, KRYLOVgamma_lin, initial norm =       6   1506 0.33333E-01 0.22666E-05
(PID.TID 0000.0001)  S/R SEAICE_KRYLOV: Picard iterate / total =      6 /   1506, Nb. of FGMRES iterations =      1
(PID.TID 0000.0001)  S/R SEAICE_KRYLOV: Picard iterate / total, KRYLOVgamma_lin, initial norm =       7   1507 0.33333E-01 0.11323E-05
(PID.TID 0000.0001)  S/R SEAICE_KRYLOV: Picard iterate / total =      7 /   1507, Nb. of FGMRES iterations =      1
(PID.TID 0000.0001)  S/R SEAICE_KRYLOV: Picard iterate / total, KRYLOVgamma_lin, initial norm =       8   1508 0.25000E-01 0.56624E-06
(PID.TID 0000.0001)  S/R SEAICE_KRYLOV: Picard iterate / total =      8 /   1508, Nb. of FGMRES iterations =      1
(PID.TID 0000.0001)  S/R SEAICE_KRYLOV: Picard iterate / total, KRYLOVgamma_lin, initial norm =       9   1509 0.20000E-01 0.28312E-06
(PID.TID 0000.0001)  S/R SEAICE_KRYLOV: Picard iterate / total =      9 /   1509, Nb. of FGMRES iterations =      1
(PID.TID 0000.0001)  S/R SEAICE_KRYLOV: Picard iterate / total, KRYLOVgamma_lin, initial norm =      10   1510 0.12500E-01 0.14156E-06
(PID.TID 0000.0001)  S/R SEAICE_KRYLOV: Picard iterate / total =     10 /   1510, Nb. of FGMRES iterations =      1
(PID.TID 0000.0001)  S/R SEAICE_KRYLOV: Picard iterate / total, KRYLOVgamma_lin, initial norm =      11   1511 0.12500E-01 0.70779E-07
(PID.TID 0000.0001)  S/R SEAICE_KRYLOV: Picard iterate / total =     11 /   1511, Nb. of FGMRES iterations =      1
(PID.TID 0000.0001)  S/R SEAICE_KRYLOV: Picard iterate / total, KRYLOVgamma_lin, initial norm =      12   1512 0.12500E-01 0.35390E-07
(PID.TID 0000.0001)  S/R SEAICE_KRYLOV: Picard iterate / total =     12 /   1512, Nb. of FGMRES iterations =      1
(PID.TID 0000.0001)  S/R SEAICE_KRYLOV: Picard iterate / total, KRYLOVgamma_lin, initial norm =      13   1513 0.12500E-01 0.17695E-07
(PID.TID 0000.0001)  S/R SEAICE_KRYLOV: Picard iterate / total =     13 /   1513, Nb. of FGMRES iterations =      1
(PID.TID 0000.0001)  S/R SEAICE_KRYLOV: Picard iterate / total, KRYLOVgamma_lin, initial norm =      14   1514 0.12500E-01 0.88474E-08
(PID.TID 0000.0001)  S/R SEAICE_KRYLOV: Picard iterate / total =     14 /   1514, Nb. of FGMRES iterations =      1
(PID.TID 0000.0001)  S/R SEAICE_KRYLOV: Picard iterate / total, KRYLOVgamma_lin, initial norm =      15   1515 0.12500E-01 0.44237E-08
(PID.TID 0000.0001)  S/R SEAICE_KRYLOV: Picard iterate / total =     15 /   1515, Nb. of FGMRES iterations =      1
(PID.TID 0000.0001)  S/R SEAICE_KRYLOV: Picard iterate / total, KRYLOVgamma_lin, initial norm =      16   1516 0.12500E-01 0.22118E-08
(PID.TID 0000.0001)  S/R SEAICE_KRYLOV: Picard iterate / total =     16 /   1516, Nb. of FGMRES iterations =      1
(PID.TID 0000.0001)  S/R SEAICE_KRYLOV: Picard iterate / total, KRYLOVgamma_lin, initial norm =      17   1517 0.12500E-01 0.11059E-08
(PID.TID 0000.0001)  S/R SEAICE_KRYLOV: Picard iterate / total =     17 /   1517, Nb. of FGMRES iterations =      1
(PID.TID 0000.0001)  S/R SEAICE_KRYLOV: Picard iterate / total, KRYLOVgamma_lin, initial norm =      18   1518 0.12500E-01 0.55296E-09
(PID.TID 0000.0001)  S/R SEAICE_KRYLOV: Picard iterate / total =     18 /   1518, Nb. of FGMRES iterations =      1
(PID.TID 0000.0001)  S/R SEAICE_KRYLOV: Picard iterate / total, KRYLOVgamma_lin, initial norm =      19   1519 0.12500E-01 0.27648E-09
(PID.TID 0000.0001)  S/R SEAICE_KRYLOV: Picard iterate / total =     19 /   1519, Nb. of FGMRES iterations =      1
(PID.TID 0000.0001)  S/R SEAICE_KRYLOV: Picard iterate / total, KRYLOVgamma_lin, initial norm =      20   1520 0.12500E-01 0.13824E-09
(PID.TID 0000.0001)  S/R SEAICE_KRYLOV: Picard iterate / total =     20 /   1520, Nb. of FGMRES iterations =      1
(PID.TID 0000.0001)  S/R SEAICE_KRYLOV: Picard iterate / total, KRYLOVgamma_lin, initial norm =      21   1521 0.12500E-01 0.69120E-10
(PID.TID 0000.0001)  S/R SEAICE_KRYLOV: Picard iterate / total =     21 /   1521, Nb. of FGMRES iterations =      1
(PID.TID 0000.0001)  S/R SEAICE_KRYLOV: Picard iterate / total, KRYLOVgamma_lin, initial norm =      22   1522 0.12500E-01 0.34560E-10
(PID.TID 0000.0001)  S/R SEAICE_KRYLOV: Picard iterate / total =     22 /   1522, Nb. of FGMRES iterations =      1
(PID.TID 0000.0001)  S/R SEAICE_KRYLOV: Picard iterate / total, KRYLOVgamma_lin, initial norm =      23   1523 0.12500E-01 0.17280E-10
(PID.TID 0000.0001)  S/R SEAICE_KRYLOV: Picard iterate / total =     23 /   1523, Nb. of FGMRES iterations =      1
(PID.TID 0000.0001)  S/R SEAICE_KRYLOV: Picard iterate / total, KRYLOVgamma_lin, initial norm =      24   1524 0.12500E-01 0.86400E-11
(PID.TID 0000.0001)  S/R SEAICE_KRYLOV: Picard iterate / total =     24 /   1524, Nb. of FGMRES iterations =      1
(PID.TID 0000.0001)  S/R SEAICE_KRYLOV: Picard iterate / total, KRYLOVgamma_lin, initial norm =      25   1525 0.12500E-01 0.43200E-11
(PID.TID 0000.0001)  S/R SEAICE_KRYLOV: Picard iterate / total =     25 /   1525, Nb. of FGMRES iterations =      1
(PID.TID 0000.0001)  S/R SEAICE_KRYLOV: Picard iterate / total, KRYLOVgamma_lin, initial norm =      26   1526 0.12500E-01 0.21600E-11
(PID.TID 0000.0001)  S/R SEAICE_KRYLOV: Picard iterate / total =     26 /   1526, Nb. of FGMRES iterations =      1
(PID.TID 0000.0001)  S/R SEAICE_KRYLOV: Picard iterate / total, KRYLOVgamma_lin, initial norm =      27   1527 0.12500E-01 0.10800E-11
(PID.TID 0000.0001)  S/R SEAICE_KRYLOV: Picard iterate / total =     27 /   1527, Nb. of FGMRES iterations =      1
(PID.TID 0000.0001)  S/R SEAICE_KRYLOV: Picard iterate / total, KRYLOVgamma_lin, initial norm =      28   1528 0.12500E-01 0.54000E-12
(PID.TID 0000.0001)  S/R SEAICE_KRYLOV: Picard iterate / total =     28 /   1528, Nb. of FGMRES iterations =      1
(PID.TID 0000.0001)  S/R SEAICE_KRYLOV: Picard iterate / total, KRYLOVgamma_lin, initial norm =      29   1529 0.12500E-01 0.27000E-12
(PID.TID 0000.0001)  S/R SEAICE_KRYLOV: Picard iterate / total =     29 /   1529, Nb. of FGMRES iterations =      1
(PID.TID 0000.0001)  S/R SEAICE_KRYLOV: Picard iterate / total, KRYLOVgamma_lin, initial norm =      30   1530 0.12500E-01 0.13500E-12
(PID.TID 0000.0001)  S/R SEAICE_KRYLOV: Picard iterate / total =     30 /   1530, Nb. of FGMRES iterations =      1
(PID.TID 0000.0001)  S/R SEAICE_KRYLOV: Picard iterate / total, KRYLOVgamma_lin, final   norm =      31   1531 0.12500E-01 0.67500E-13
(PID.TID 0000.0001)  // =======================================================
(PID.TID 0000.0001)  // Begin KRYLOV statistics
(PID.TID 0000.0001)  // =======================================================
(PID.TID 0000.0001)  %KRYLOV_MON: time step              =         16
(PID.TID 0000.0001)  %KRYLOV_MON: Nb. of time steps      =          1
(PID.TID 0000.0001)  %KRYLOV_MON: Nb. of Picard steps    =         31
(PID.TID 0000.0001)  %KRYLOV_MON: Nb. of Krylov steps    =         30
(PID.TID 0000.0001)  %KRYLOV_MON: Nb. of Picard failures =          0
(PID.TID 0000.0001)  %KRYLOV_MON: Nb. of Krylov failures =          0
(PID.TID 0000.0001)  // =======================================================
(PID.TID 0000.0001)  // End KRYLOV statistics
(PID.TID 0000.0001)  // =======================================================
(PID.TID 0000.0001)  S/R SEAICE_KRYLOV: Total number FGMRES iterations =     30 in timestep         16
(PID.TID 0000.0001) // =======================================================
(PID.TID 0000.0001) // Begin MONITOR dynamic field statistics
(PID.TID 0000.0001) // =======================================================
(PID.TID 0000.0001) %MON time_tsnumber                =                    16
(PID.TID 0000.0001) %MON time_secondsf                =   4.0000000000000E+01
(PID.TID 0000.0001) %MON dynstat_eta_max              =   0.0000000000000E+00
(PID.TID 0000.0001) %MON dynstat_eta_min              =   0.0000000000000E+00
(PID.TID 0000.0001) %MON dynstat_eta_mean             =   0.0000000000000E+00
(PID.TID 0000.0001) %MON dynstat_eta_sd               =   0.0000000000000E+00
(PID.TID 0000.0001) %MON dynstat_eta_del2             =   0.0000000000000E+00
(PID.TID 0000.0001) %MON dynstat_uvel_max             =   9.8437500000000E-03
(PID.TID 0000.0001) %MON dynstat_uvel_min             =  -9.8437500000000E-03
(PID.TID 0000.0001) %MON dynstat_uvel_mean            =   0.0000000000000E+00
(PID.TID 0000.0001) %MON dynstat_uvel_sd              =   5.7727978755972E-03
(PID.TID 0000.0001) %MON dynstat_uvel_del2            =   1.0089048364799E-20
(PID.TID 0000.0001) %MON dynstat_vvel_max             =   9.8437500000000E-03
(PID.TID 0000.0001) %MON dynstat_vvel_min             =  -9.8437500000000E-03
(PID.TID 0000.0001) %MON dynstat_vvel_mean            =   0.0000000000000E+00
(PID.TID 0000.0001) %MON dynstat_vvel_sd              =   5.7727978755972E-03
(PID.TID 0000.0001) %MON dynstat_vvel_del2            =   1.0089048364799E-20
(PID.TID 0000.0001) %MON dynstat_wvel_max             =   1.1914062500000E-05
(PID.TID 0000.0001) %MON dynstat_wvel_min             =  -1.1914062500000E-05
(PID.TID 0000.0001) %MON dynstat_wvel_mean            =   3.4694469519536E-25
(PID.TID 0000.0001) %MON dynstat_wvel_sd              =   1.7200872247780E-06
(PID.TID 0000.0001) %MON dynstat_wvel_del2            =   2.8187489626940E-08
(PID.TID 0000.0001) %MON dynstat_theta_max            =  -1.6200000000000E+00
(PID.TID 0000.0001) %MON dynstat_theta_min            =  -1.6200000000000E+00
(PID.TID 0000.0001) %MON dynstat_theta_mean           =  -1.6200000000000E+00
(PID.TID 0000.0001) %MON dynstat_theta_sd             =   0.0000000000000E+00
(PID.TID 0000.0001) %MON dynstat_theta_del2           =   0.0000000000000E+00
(PID.TID 0000.0001) %MON dynstat_salt_max             =   3.0000000000000E+01
(PID.TID 0000.0001) %MON dynstat_salt_min             =   3.0000000000000E+01
(PID.TID 0000.0001) %MON dynstat_salt_mean            =   3.0000000000000E+01
(PID.TID 0000.0001) %MON dynstat_salt_sd              =   0.0000000000000E+00
(PID.TID 0000.0001) %MON dynstat_salt_del2            =   0.0000000000000E+00
(PID.TID 0000.0001) %MON trAdv_CFL_u_max              =   3.0761718750000E-06
(PID.TID 0000.0001) %MON trAdv_CFL_v_max              =   3.0761718750000E-06
(PID.TID 0000.0001) %MON trAdv_CFL_w_max              =   2.9785156250000E-06
(PID.TID 0000.0001) %MON advcfl_uvel_max              =   3.0761718750000E-06
(PID.TID 0000.0001) %MON advcfl_vvel_max              =   3.0761718750000E-06
(PID.TID 0000.0001) %MON advcfl_wvel_max              =   5.9570312500000E-06
(PID.TID 0000.0001) %MON advcfl_W_hf_max              =   0.0000000000000E+00
(PID.TID 0000.0001) %MON pe_b_mean                    =   0.0000000000000E+00
(PID.TID 0000.0001) %MON ke_max                       =   9.0844726562500E-05
(PID.TID 0000.0001) %MON ke_mean                      =   3.2804489135742E-05
(PID.TID 0000.0001) %MON ke_vol                       =   2.6214400000000E+12
(PID.TID 0000.0001) %MON vort_r_min                   =  -7.8125000000000E-08
(PID.TID 0000.0001) %MON vort_r_max                   =   1.2304687500000E-06
(PID.TID 0000.0001) %MON vort_a_mean                  =   1.4856000000000E-04
(PID.TID 0000.0001) %MON vort_a_sd                    =   1.5312918562496E-06
(PID.TID 0000.0001) %MON vort_p_mean                  =   1.5552375000000E-04
(PID.TID 0000.0001) %MON vort_p_sd                    =   5.5921473110222E-05
(PID.TID 0000.0001) %MON surfExpan_theta_mean         =   0.0000000000000E+00
(PID.TID 0000.0001) %MON surfExpan_salt_mean          =   1.3877787807814E-23
(PID.TID 0000.0001) // =======================================================
(PID.TID 0000.0001) // End MONITOR dynamic field statistics
(PID.TID 0000.0001) // =======================================================
(PID.TID 0000.0001) // =======================================================
(PID.TID 0000.0001) // Begin MONITOR SEAICE statistics
(PID.TID 0000.0001) // =======================================================
(PID.TID 0000.0001) %MON seaice_tsnumber              =                    16
(PID.TID 0000.0001) %MON seaice_time_sec              =   4.0000000000000E+01
(PID.TID 0000.0001) %MON seaice_uice_max              =   2.7299902359024E-02
(PID.TID 0000.0001) %MON seaice_uice_min              =  -2.7765718007649E-02
(PID.TID 0000.0001) %MON seaice_uice_mean             =  -9.4476659387166E-07
(PID.TID 0000.0001) %MON seaice_uice_sd               =   1.1740215688655E-02
(PID.TID 0000.0001) %MON seaice_uice_del2             =   3.7244351739023E-06
(PID.TID 0000.0001) %MON seaice_vice_max              =   2.6651652350454E-02
(PID.TID 0000.0001) %MON seaice_vice_min              =  -2.6951544628616E-02
(PID.TID 0000.0001) %MON seaice_vice_mean             =   3.0338988746999E-06
(PID.TID 0000.0001) %MON seaice_vice_sd               =   1.1685923377818E-02
(PID.TID 0000.0001) %MON seaice_vice_del2             =   3.7433897276066E-06
(PID.TID 0000.0001) %MON seaice_area_max              =   1.0000000000000E+00
(PID.TID 0000.0001) %MON seaice_area_min              =   9.9999038068183E-01
(PID.TID 0000.0001) %MON seaice_area_mean             =   9.9999944442992E-01
(PID.TID 0000.0001) %MON seaice_area_sd               =   1.3207497074685E-06
(PID.TID 0000.0001) %MON seaice_area_del2             =   1.6823971142850E-08
(PID.TID 0000.0001) %MON seaice_heff_max              =   3.0999852509722E-01
(PID.TID 0000.0001) %MON seaice_heff_min              =   2.9006041223929E-01
(PID.TID 0000.0001) %MON seaice_heff_mean             =   3.0067126525963E-01
(PID.TID 0000.0001) %MON seaice_heff_sd               =   5.0069277227490E-03
(PID.TID 0000.0001) %MON seaice_heff_del2             =   1.2853724767381E-05
(PID.TID 0000.0001) %MON seaice_hsnow_max             =   0.0000000000000E+00
(PID.TID 0000.0001) %MON seaice_hsnow_min             =   0.0000000000000E+00
(PID.TID 0000.0001) %MON seaice_hsnow_mean            =   0.0000000000000E+00
(PID.TID 0000.0001) %MON seaice_hsnow_sd              =   0.0000000000000E+00
(PID.TID 0000.0001) %MON seaice_hsnow_del2            =   0.0000000000000E+00
(PID.TID 0000.0001) // =======================================================
(PID.TID 0000.0001) // End MONITOR SEAICE statistics
(PID.TID 0000.0001) // =======================================================
 Computing Diagnostic #    163  SIuice       Counter:       1   Parms: UU      M1      
           Vector  Mate for  SIuice       Diagnostic #    164  SIvice   exists 
 Computing Diagnostic #    164  SIvice       Counter:       1   Parms: VV      M1      
           Vector  Mate for  SIvice       Diagnostic #    163  SIuice   exists 
 Computing Diagnostic #    149  SIheff       Counter:       1   Parms: SM      M1      
 Computing Diagnostic #    146  SIarea       Counter:       1   Parms: SM      M1      
 Computing Diagnostic #    228  SIshear      Counter:       1   Parms: SM      M1      
 Computing Diagnostic #    233  SIcohes      Counter:       1   Parms: SM      M1      
 Computing Diagnostic #    221  SIsig1       Counter:       1   Parms: SM      M1      
 Computing Diagnostic #    222  SIsig2       Counter:       1   Parms: SM      M1      
 Computing Diagnostic #    231  SIdamage     Counter:       1   Parms: SM      M1      
 Computing Diagnostic #    165  SItaux       Counter:       1   Parms: UU      U1      
           Vector  Mate for  SItaux       Diagnostic #    166  SItauy   exists 
 Computing Diagnostic #    166  SItauy       Counter:       1   Parms: VV      U1      
           Vector  Mate for  SItauy       Diagnostic #    165  SItaux   exists 
 Computing Diagnostic #    133  EXFuwind     Counter:       1   Parms: UM      U1      
 Computing Diagnostic #    134  EXFvwind     Counter:       1   Parms: VM      U1      
(PID.TID 0000.0001)  S/R SEAICE_KRYLOV: Picard iterate / total, KRYLOVgamma_lin, initial norm =       1   1601 0.10000E+00 0.10757E+00
(PID.TID 0000.0001)  S/R SEAICE_KRYLOV: Picard iterate / total =      1 /   1601, Nb. of FGMRES iterations =      1
(PID.TID 0000.0001)  S/R SEAICE_KRYLOV: Picard iterate / total, KRYLOVgamma_lin, initial norm =       2   1602 0.50000E-01 0.11578E-03
(PID.TID 0000.0001)  S/R SEAICE_KRYLOV: Picard iterate / total =      2 /   1602, Nb. of FGMRES iterations =      1
(PID.TID 0000.0001)  S/R SEAICE_KRYLOV: Picard iterate / total, KRYLOVgamma_lin, initial norm =       3   1603 0.50000E-01 0.13788E-04
(PID.TID 0000.0001)  S/R SEAICE_KRYLOV: Picard iterate / total =      3 /   1603, Nb. of FGMRES iterations =      1
(PID.TID 0000.0001)  S/R SEAICE_KRYLOV: Picard iterate / total, KRYLOVgamma_lin, initial norm =       4   1604 0.33333E-01 0.87075E-05
(PID.TID 0000.0001)  S/R SEAICE_KRYLOV: Picard iterate / total =      4 /   1604, Nb. of FGMRES iterations =      1
(PID.TID 0000.0001)  S/R SEAICE_KRYLOV: Picard iterate / total, KRYLOVgamma_lin, initial norm =       5   1605 0.33333E-01 0.41978E-05
(PID.TID 0000.0001)  S/R SEAICE_KRYLOV: Picard iterate / total =      5 /   1605, Nb. of FGMRES iterations =      1
(PID.TID 0000.0001)  S/R SEAICE_KRYLOV: Picard iterate / total, KRYLOVgamma_lin, initial norm =       6   1606 0.33333E-01 0.21097E-05
(PID.TID 0000.0001)  S/R SEAICE_KRYLOV: Picard iterate / total =      6 /   1606, Nb. of FGMRES iterations =      1
(PID.TID 0000.0001)  S/R SEAICE_KRYLOV: Picard iterate / total, KRYLOVgamma_lin, initial norm =       7   1607 0.33333E-01 0.10541E-05
(PID.TID 0000.0001)  S/R SEAICE_KRYLOV: Picard iterate / total =      7 /   1607, Nb. of FGMRES iterations =      1
(PID.TID 0000.0001)  S/R SEAICE_KRYLOV: Picard iterate / total, KRYLOVgamma_lin, initial norm =       8   1608 0.25000E-01 0.52708E-06
(PID.TID 0000.0001)  S/R SEAICE_KRYLOV: Picard iterate / total =      8 /   1608, Nb. of FGMRES iterations =      1
(PID.TID 0000.0001)  S/R SEAICE_KRYLOV: Picard iterate / total, KRYLOVgamma_lin, initial norm =       9   1609 0.20000E-01 0.26354E-06
(PID.TID 0000.0001)  S/R SEAICE_KRYLOV: Picard iterate / total =      9 /   1609, Nb. of FGMRES iterations =      1
(PID.TID 0000.0001)  S/R SEAICE_KRYLOV: Picard iterate / total, KRYLOVgamma_lin, initial norm =      10   1610 0.12500E-01 0.13177E-06
(PID.TID 0000.0001)  S/R SEAICE_KRYLOV: Picard iterate / total =     10 /   1610, Nb. of FGMRES iterations =      1
(PID.TID 0000.0001)  S/R SEAICE_KRYLOV: Picard iterate / total, KRYLOVgamma_lin, initial norm =      11   1611 0.12500E-01 0.65885E-07
(PID.TID 0000.0001)  S/R SEAICE_KRYLOV: Picard iterate / total =     11 /   1611, Nb. of FGMRES iterations =      1
(PID.TID 0000.0001)  S/R SEAICE_KRYLOV: Picard iterate / total, KRYLOVgamma_lin, initial norm =      12   1612 0.12500E-01 0.32942E-07
(PID.TID 0000.0001)  S/R SEAICE_KRYLOV: Picard iterate / total =     12 /   1612, Nb. of FGMRES iterations =      1
(PID.TID 0000.0001)  S/R SEAICE_KRYLOV: Picard iterate / total, KRYLOVgamma_lin, initial norm =      13   1613 0.12500E-01 0.16471E-07
(PID.TID 0000.0001)  S/R SEAICE_KRYLOV: Picard iterate / total =     13 /   1613, Nb. of FGMRES iterations =      1
(PID.TID 0000.0001)  S/R SEAICE_KRYLOV: Picard iterate / total, KRYLOVgamma_lin, initial norm =      14   1614 0.12500E-01 0.82356E-08
(PID.TID 0000.0001)  S/R SEAICE_KRYLOV: Picard iterate / total =     14 /   1614, Nb. of FGMRES iterations =      1
(PID.TID 0000.0001)  S/R SEAICE_KRYLOV: Picard iterate / total, KRYLOVgamma_lin, initial norm =      15   1615 0.12500E-01 0.41178E-08
(PID.TID 0000.0001)  S/R SEAICE_KRYLOV: Picard iterate / total =     15 /   1615, Nb. of FGMRES iterations =      1
(PID.TID 0000.0001)  S/R SEAICE_KRYLOV: Picard iterate / total, KRYLOVgamma_lin, initial norm =      16   1616 0.12500E-01 0.20589E-08
(PID.TID 0000.0001)  S/R SEAICE_KRYLOV: Picard iterate / total =     16 /   1616, Nb. of FGMRES iterations =      1
(PID.TID 0000.0001)  S/R SEAICE_KRYLOV: Picard iterate / total, KRYLOVgamma_lin, initial norm =      17   1617 0.12500E-01 0.10294E-08
(PID.TID 0000.0001)  S/R SEAICE_KRYLOV: Picard iterate / total =     17 /   1617, Nb. of FGMRES iterations =      1
(PID.TID 0000.0001)  S/R SEAICE_KRYLOV: Picard iterate / total, KRYLOVgamma_lin, initial norm =      18   1618 0.12500E-01 0.51472E-09
(PID.TID 0000.0001)  S/R SEAICE_KRYLOV: Picard iterate / total =     18 /   1618, Nb. of FGMRES iterations =      1
(PID.TID 0000.0001)  S/R SEAICE_KRYLOV: Picard iterate / total, KRYLOVgamma_lin, initial norm =      19   1619 0.12500E-01 0.25736E-09
(PID.TID 0000.0001)  S/R SEAICE_KRYLOV: Picard iterate / total =     19 /   1619, Nb. of FGMRES iterations =      1
(PID.TID 0000.0001)  S/R SEAICE_KRYLOV: Picard iterate / total, KRYLOVgamma_lin, initial norm =      20   1620 0.12500E-01 0.12868E-09
(PID.TID 0000.0001)  S/R SEAICE_KRYLOV: Picard iterate / total =     20 /   1620, Nb. of FGMRES iterations =      1
(PID.TID 0000.0001)  S/R SEAICE_KRYLOV: Picard iterate / total, KRYLOVgamma_lin, initial norm =      21   1621 0.12500E-01 0.64340E-10
(PID.TID 0000.0001)  S/R SEAICE_KRYLOV: Picard iterate / total =     21 /   1621, Nb. of FGMRES iterations =      1
(PID.TID 0000.0001)  S/R SEAICE_KRYLOV: Picard iterate / total, KRYLOVgamma_lin, initial norm =      22   1622 0.12500E-01 0.32170E-10
(PID.TID 0000.0001)  S/R SEAICE_KRYLOV: Picard iterate / total =     22 /   1622, Nb. of FGMRES iterations =      1
(PID.TID 0000.0001)  S/R SEAICE_KRYLOV: Picard iterate / total, KRYLOVgamma_lin, initial norm =      23   1623 0.12500E-01 0.16085E-10
(PID.TID 0000.0001)  S/R SEAICE_KRYLOV: Picard iterate / total =     23 /   1623, Nb. of FGMRES iterations =      1
(PID.TID 0000.0001)  S/R SEAICE_KRYLOV: Picard iterate / total, KRYLOVgamma_lin, initial norm =      24   1624 0.12500E-01 0.80425E-11
(PID.TID 0000.0001)  S/R SEAICE_KRYLOV: Picard iterate / total =     24 /   1624, Nb. of FGMRES iterations =      1
(PID.TID 0000.0001)  S/R SEAICE_KRYLOV: Picard iterate / total, KRYLOVgamma_lin, initial norm =      25   1625 0.12500E-01 0.40213E-11
(PID.TID 0000.0001)  S/R SEAICE_KRYLOV: Picard iterate / total =     25 /   1625, Nb. of FGMRES iterations =      1
(PID.TID 0000.0001)  S/R SEAICE_KRYLOV: Picard iterate / total, KRYLOVgamma_lin, initial norm =      26   1626 0.12500E-01 0.20106E-11
(PID.TID 0000.0001)  S/R SEAICE_KRYLOV: Picard iterate / total =     26 /   1626, Nb. of FGMRES iterations =      1
(PID.TID 0000.0001)  S/R SEAICE_KRYLOV: Picard iterate / total, KRYLOVgamma_lin, initial norm =      27   1627 0.12500E-01 0.10053E-11
(PID.TID 0000.0001)  S/R SEAICE_KRYLOV: Picard iterate / total =     27 /   1627, Nb. of FGMRES iterations =      1
(PID.TID 0000.0001)  S/R SEAICE_KRYLOV: Picard iterate / total, KRYLOVgamma_lin, initial norm =      28   1628 0.12500E-01 0.50266E-12
(PID.TID 0000.0001)  S/R SEAICE_KRYLOV: Picard iterate / total =     28 /   1628, Nb. of FGMRES iterations =      1
(PID.TID 0000.0001)  S/R SEAICE_KRYLOV: Picard iterate / total, KRYLOVgamma_lin, initial norm =      29   1629 0.12500E-01 0.25133E-12
(PID.TID 0000.0001)  S/R SEAICE_KRYLOV: Picard iterate / total =     29 /   1629, Nb. of FGMRES iterations =      1
(PID.TID 0000.0001)  S/R SEAICE_KRYLOV: Picard iterate / total, KRYLOVgamma_lin, initial norm =      30   1630 0.12500E-01 0.12566E-12
(PID.TID 0000.0001)  S/R SEAICE_KRYLOV: Picard iterate / total =     30 /   1630, Nb. of FGMRES iterations =      1
(PID.TID 0000.0001)  S/R SEAICE_KRYLOV: Picard iterate / total, KRYLOVgamma_lin, final   norm =      31   1631 0.12500E-01 0.62829E-13
(PID.TID 0000.0001)  // =======================================================
(PID.TID 0000.0001)  // Begin KRYLOV statistics
(PID.TID 0000.0001)  // =======================================================
(PID.TID 0000.0001)  %KRYLOV_MON: time step              =         17
(PID.TID 0000.0001)  %KRYLOV_MON: Nb. of time steps      =          1
(PID.TID 0000.0001)  %KRYLOV_MON: Nb. of Picard steps    =         31
(PID.TID 0000.0001)  %KRYLOV_MON: Nb. of Krylov steps    =         30
(PID.TID 0000.0001)  %KRYLOV_MON: Nb. of Picard failures =          0
(PID.TID 0000.0001)  %KRYLOV_MON: Nb. of Krylov failures =          0
(PID.TID 0000.0001)  // =======================================================
(PID.TID 0000.0001)  // End KRYLOV statistics
(PID.TID 0000.0001)  // =======================================================
(PID.TID 0000.0001)  S/R SEAICE_KRYLOV: Total number FGMRES iterations =     30 in timestep         17
(PID.TID 0000.0001) // =======================================================
(PID.TID 0000.0001) // Begin MONITOR dynamic field statistics
(PID.TID 0000.0001) // =======================================================
(PID.TID 0000.0001) %MON time_tsnumber                =                    17
(PID.TID 0000.0001) %MON time_secondsf                =   4.2500000000000E+01
(PID.TID 0000.0001) %MON dynstat_eta_max              =   0.0000000000000E+00
(PID.TID 0000.0001) %MON dynstat_eta_min              =   0.0000000000000E+00
(PID.TID 0000.0001) %MON dynstat_eta_mean             =   0.0000000000000E+00
(PID.TID 0000.0001) %MON dynstat_eta_sd               =   0.0000000000000E+00
(PID.TID 0000.0001) %MON dynstat_eta_del2             =   0.0000000000000E+00
(PID.TID 0000.0001) %MON dynstat_uvel_max             =   9.8437500000000E-03
(PID.TID 0000.0001) %MON dynstat_uvel_min             =  -9.8437500000000E-03
(PID.TID 0000.0001) %MON dynstat_uvel_mean            =   0.0000000000000E+00
(PID.TID 0000.0001) %MON dynstat_uvel_sd              =   5.7727978755972E-03
(PID.TID 0000.0001) %MON dynstat_uvel_del2            =   1.0089048364799E-20
(PID.TID 0000.0001) %MON dynstat_vvel_max             =   9.8437500000000E-03
(PID.TID 0000.0001) %MON dynstat_vvel_min             =  -9.8437500000000E-03
(PID.TID 0000.0001) %MON dynstat_vvel_mean            =   0.0000000000000E+00
(PID.TID 0000.0001) %MON dynstat_vvel_sd              =   5.7727978755972E-03
(PID.TID 0000.0001) %MON dynstat_vvel_del2            =   1.0089048364799E-20
(PID.TID 0000.0001) %MON dynstat_wvel_max             =   1.1914062500000E-05
(PID.TID 0000.0001) %MON dynstat_wvel_min             =  -1.1914062500000E-05
(PID.TID 0000.0001) %MON dynstat_wvel_mean            =   3.4694469519536E-25
(PID.TID 0000.0001) %MON dynstat_wvel_sd              =   1.7200872247780E-06
(PID.TID 0000.0001) %MON dynstat_wvel_del2            =   2.8187489626940E-08
(PID.TID 0000.0001) %MON dynstat_theta_max            =  -1.6200000000000E+00
(PID.TID 0000.0001) %MON dynstat_theta_min            =  -1.6200000000000E+00
(PID.TID 0000.0001) %MON dynstat_theta_mean           =  -1.6200000000000E+00
(PID.TID 0000.0001) %MON dynstat_theta_sd             =   0.0000000000000E+00
(PID.TID 0000.0001) %MON dynstat_theta_del2           =   0.0000000000000E+00
(PID.TID 0000.0001) %MON dynstat_salt_max             =   3.0000000000000E+01
(PID.TID 0000.0001) %MON dynstat_salt_min             =   3.0000000000000E+01
(PID.TID 0000.0001) %MON dynstat_salt_mean            =   3.0000000000000E+01
(PID.TID 0000.0001) %MON dynstat_salt_sd              =   0.0000000000000E+00
(PID.TID 0000.0001) %MON dynstat_salt_del2            =   0.0000000000000E+00
(PID.TID 0000.0001) %MON trAdv_CFL_u_max              =   3.0761718750000E-06
(PID.TID 0000.0001) %MON trAdv_CFL_v_max              =   3.0761718750000E-06
(PID.TID 0000.0001) %MON trAdv_CFL_w_max              =   2.9785156250000E-06
(PID.TID 0000.0001) %MON advcfl_uvel_max              =   3.0761718750000E-06
(PID.TID 0000.0001) %MON advcfl_vvel_max              =   3.0761718750000E-06
(PID.TID 0000.0001) %MON advcfl_wvel_max              =   5.9570312500000E-06
(PID.TID 0000.0001) %MON advcfl_W_hf_max              =   0.0000000000000E+00
(PID.TID 0000.0001) %MON pe_b_mean                    =   0.0000000000000E+00
(PID.TID 0000.0001) %MON ke_max                       =   9.0844726562500E-05
(PID.TID 0000.0001) %MON ke_mean                      =   3.2804489135742E-05
(PID.TID 0000.0001) %MON ke_vol                       =   2.6214400000000E+12
(PID.TID 0000.0001) %MON vort_r_min                   =  -7.8125000000000E-08
(PID.TID 0000.0001) %MON vort_r_max                   =   1.2304687500000E-06
(PID.TID 0000.0001) %MON vort_a_mean                  =   1.4856000000000E-04
(PID.TID 0000.0001) %MON vort_a_sd                    =   1.5312918562496E-06
(PID.TID 0000.0001) %MON vort_p_mean                  =   1.5552375000000E-04
(PID.TID 0000.0001) %MON vort_p_sd                    =   5.5921473110222E-05
(PID.TID 0000.0001) %MON surfExpan_theta_mean         =   0.0000000000000E+00
(PID.TID 0000.0001) %MON surfExpan_salt_mean          =   1.3877787807814E-23
(PID.TID 0000.0001) // =======================================================
(PID.TID 0000.0001) // End MONITOR dynamic field statistics
(PID.TID 0000.0001) // =======================================================
(PID.TID 0000.0001) // =======================================================
(PID.TID 0000.0001) // Begin MONITOR SEAICE statistics
(PID.TID 0000.0001) // =======================================================
(PID.TID 0000.0001) %MON seaice_tsnumber              =                    17
(PID.TID 0000.0001) %MON seaice_time_sec              =   4.2500000000000E+01
(PID.TID 0000.0001) %MON seaice_uice_max              =   2.8967653207660E-02
(PID.TID 0000.0001) %MON seaice_uice_min              =  -2.9436468046671E-02
(PID.TID 0000.0001) %MON seaice_uice_mean             =  -1.0237210749544E-06
(PID.TID 0000.0001) %MON seaice_uice_sd               =   1.2450970086184E-02
(PID.TID 0000.0001) %MON seaice_uice_del2             =   3.9441718721302E-06
(PID.TID 0000.0001) %MON seaice_vice_max              =   2.8271824248558E-02
(PID.TID 0000.0001) %MON seaice_vice_min              =  -2.8587301903971E-02
(PID.TID 0000.0001) %MON seaice_vice_mean             =   3.2170638558296E-06
(PID.TID 0000.0001) %MON seaice_vice_sd               =   1.2393770878519E-02
(PID.TID 0000.0001) %MON seaice_vice_del2             =   3.9650009842702E-06
(PID.TID 0000.0001) %MON seaice_area_max              =   1.0000000000000E+00
(PID.TID 0000.0001) %MON seaice_area_min              =   9.9998915780544E-01
(PID.TID 0000.0001) %MON seaice_area_mean             =   9.9999937696909E-01
(PID.TID 0000.0001) %MON seaice_area_sd               =   1.4903292660169E-06
(PID.TID 0000.0001) %MON seaice_area_del2             =   1.9047211022251E-08
(PID.TID 0000.0001) %MON seaice_heff_max              =   3.0999850693148E-01
(PID.TID 0000.0001) %MON seaice_heff_min              =   2.9006039344118E-01
(PID.TID 0000.0001) %MON seaice_heff_mean             =   3.0067126525963E-01
(PID.TID 0000.0001) %MON seaice_heff_sd               =   5.0069285586432E-03
(PID.TID 0000.0001) %MON seaice_heff_del2             =   1.2853721745843E-05
(PID.TID 0000.0001) %MON seaice_hsnow_max             =   0.0000000000000E+00
(PID.TID 0000.0001) %MON seaice_hsnow_min             =   0.0000000000000E+00
(PID.TID 0000.0001) %MON seaice_hsnow_mean            =   0.0000000000000E+00
(PID.TID 0000.0001) %MON seaice_hsnow_sd              =   0.0000000000000E+00
(PID.TID 0000.0001) %MON seaice_hsnow_del2            =   0.0000000000000E+00
(PID.TID 0000.0001) // =======================================================
(PID.TID 0000.0001) // End MONITOR SEAICE statistics
(PID.TID 0000.0001) // =======================================================
 Computing Diagnostic #    163  SIuice       Counter:       1   Parms: UU      M1      
           Vector  Mate for  SIuice       Diagnostic #    164  SIvice   exists 
 Computing Diagnostic #    164  SIvice       Counter:       1   Parms: VV      M1      
           Vector  Mate for  SIvice       Diagnostic #    163  SIuice   exists 
 Computing Diagnostic #    149  SIheff       Counter:       1   Parms: SM      M1      
 Computing Diagnostic #    146  SIarea       Counter:       1   Parms: SM      M1      
 Computing Diagnostic #    228  SIshear      Counter:       1   Parms: SM      M1      
 Computing Diagnostic #    233  SIcohes      Counter:       1   Parms: SM      M1      
 Computing Diagnostic #    221  SIsig1       Counter:       1   Parms: SM      M1      
 Computing Diagnostic #    222  SIsig2       Counter:       1   Parms: SM      M1      
 Computing Diagnostic #    231  SIdamage     Counter:       1   Parms: SM      M1      
 Computing Diagnostic #    165  SItaux       Counter:       1   Parms: UU      U1      
           Vector  Mate for  SItaux       Diagnostic #    166  SItauy   exists 
 Computing Diagnostic #    166  SItauy       Counter:       1   Parms: VV      U1      
           Vector  Mate for  SItauy       Diagnostic #    165  SItaux   exists 
 Computing Diagnostic #    133  EXFuwind     Counter:       1   Parms: UM      U1      
 Computing Diagnostic #    134  EXFvwind     Counter:       1   Parms: VM      U1      
(PID.TID 0000.0001)  S/R SEAICE_KRYLOV: Picard iterate / total, KRYLOVgamma_lin, initial norm =       1   1701 0.10000E+00 0.10717E+00
(PID.TID 0000.0001)  S/R SEAICE_KRYLOV: Picard iterate / total =      1 /   1701, Nb. of FGMRES iterations =      1
(PID.TID 0000.0001)  S/R SEAICE_KRYLOV: Picard iterate / total, KRYLOVgamma_lin, initial norm =       2   1702 0.50000E-01 0.10762E-03
(PID.TID 0000.0001)  S/R SEAICE_KRYLOV: Picard iterate / total =      2 /   1702, Nb. of FGMRES iterations =      1
(PID.TID 0000.0001)  S/R SEAICE_KRYLOV: Picard iterate / total, KRYLOVgamma_lin, initial norm =       3   1703 0.50000E-01 0.13039E-04
(PID.TID 0000.0001)  S/R SEAICE_KRYLOV: Picard iterate / total =      3 /   1703, Nb. of FGMRES iterations =      1
(PID.TID 0000.0001)  S/R SEAICE_KRYLOV: Picard iterate / total, KRYLOVgamma_lin, initial norm =       4   1704 0.33333E-01 0.80980E-05
(PID.TID 0000.0001)  S/R SEAICE_KRYLOV: Picard iterate / total =      4 /   1704, Nb. of FGMRES iterations =      1
(PID.TID 0000.0001)  S/R SEAICE_KRYLOV: Picard iterate / total, KRYLOVgamma_lin, initial norm =       5   1705 0.33333E-01 0.39156E-05
(PID.TID 0000.0001)  S/R SEAICE_KRYLOV: Picard iterate / total =      5 /   1705, Nb. of FGMRES iterations =      1
(PID.TID 0000.0001)  S/R SEAICE_KRYLOV: Picard iterate / total, KRYLOVgamma_lin, initial norm =       6   1706 0.33333E-01 0.19668E-05
(PID.TID 0000.0001)  S/R SEAICE_KRYLOV: Picard iterate / total =      6 /   1706, Nb. of FGMRES iterations =      1
(PID.TID 0000.0001)  S/R SEAICE_KRYLOV: Picard iterate / total, KRYLOVgamma_lin, initial norm =       7   1707 0.33333E-01 0.98275E-06
(PID.TID 0000.0001)  S/R SEAICE_KRYLOV: Picard iterate / total =      7 /   1707, Nb. of FGMRES iterations =      1
(PID.TID 0000.0001)  S/R SEAICE_KRYLOV: Picard iterate / total, KRYLOVgamma_lin, initial norm =       8   1708 0.25000E-01 0.49142E-06
(PID.TID 0000.0001)  S/R SEAICE_KRYLOV: Picard iterate / total =      8 /   1708, Nb. of FGMRES iterations =      1
(PID.TID 0000.0001)  S/R SEAICE_KRYLOV: Picard iterate / total, KRYLOVgamma_lin, initial norm =       9   1709 0.20000E-01 0.24571E-06
(PID.TID 0000.0001)  S/R SEAICE_KRYLOV: Picard iterate / total =      9 /   1709, Nb. of FGMRES iterations =      1
(PID.TID 0000.0001)  S/R SEAICE_KRYLOV: Picard iterate / total, KRYLOVgamma_lin, initial norm =      10   1710 0.12500E-01 0.12285E-06
(PID.TID 0000.0001)  S/R SEAICE_KRYLOV: Picard iterate / total =     10 /   1710, Nb. of FGMRES iterations =      1
(PID.TID 0000.0001)  S/R SEAICE_KRYLOV: Picard iterate / total, KRYLOVgamma_lin, initial norm =      11   1711 0.12500E-01 0.61427E-07
(PID.TID 0000.0001)  S/R SEAICE_KRYLOV: Picard iterate / total =     11 /   1711, Nb. of FGMRES iterations =      1
(PID.TID 0000.0001)  S/R SEAICE_KRYLOV: Picard iterate / total, KRYLOVgamma_lin, initial norm =      12   1712 0.12500E-01 0.30713E-07
(PID.TID 0000.0001)  S/R SEAICE_KRYLOV: Picard iterate / total =     12 /   1712, Nb. of FGMRES iterations =      1
(PID.TID 0000.0001)  S/R SEAICE_KRYLOV: Picard iterate / total, KRYLOVgamma_lin, initial norm =      13   1713 0.12500E-01 0.15357E-07
(PID.TID 0000.0001)  S/R SEAICE_KRYLOV: Picard iterate / total =     13 /   1713, Nb. of FGMRES iterations =      1
(PID.TID 0000.0001)  S/R SEAICE_KRYLOV: Picard iterate / total, KRYLOVgamma_lin, initial norm =      14   1714 0.12500E-01 0.76783E-08
(PID.TID 0000.0001)  S/R SEAICE_KRYLOV: Picard iterate / total =     14 /   1714, Nb. of FGMRES iterations =      1
(PID.TID 0000.0001)  S/R SEAICE_KRYLOV: Picard iterate / total, KRYLOVgamma_lin, initial norm =      15   1715 0.12500E-01 0.38392E-08
(PID.TID 0000.0001)  S/R SEAICE_KRYLOV: Picard iterate / total =     15 /   1715, Nb. of FGMRES iterations =      1
(PID.TID 0000.0001)  S/R SEAICE_KRYLOV: Picard iterate / total, KRYLOVgamma_lin, initial norm =      16   1716 0.12500E-01 0.19196E-08
(PID.TID 0000.0001)  S/R SEAICE_KRYLOV: Picard iterate / total =     16 /   1716, Nb. of FGMRES iterations =      1
(PID.TID 0000.0001)  S/R SEAICE_KRYLOV: Picard iterate / total, KRYLOVgamma_lin, initial norm =      17   1717 0.12500E-01 0.95979E-09
(PID.TID 0000.0001)  S/R SEAICE_KRYLOV: Picard iterate / total =     17 /   1717, Nb. of FGMRES iterations =      1
(PID.TID 0000.0001)  S/R SEAICE_KRYLOV: Picard iterate / total, KRYLOVgamma_lin, initial norm =      18   1718 0.12500E-01 0.47990E-09
(PID.TID 0000.0001)  S/R SEAICE_KRYLOV: Picard iterate / total =     18 /   1718, Nb. of FGMRES iterations =      1
(PID.TID 0000.0001)  S/R SEAICE_KRYLOV: Picard iterate / total, KRYLOVgamma_lin, initial norm =      19   1719 0.12500E-01 0.23995E-09
(PID.TID 0000.0001)  S/R SEAICE_KRYLOV: Picard iterate / total =     19 /   1719, Nb. of FGMRES iterations =      1
(PID.TID 0000.0001)  S/R SEAICE_KRYLOV: Picard iterate / total, KRYLOVgamma_lin, initial norm =      20   1720 0.12500E-01 0.11997E-09
(PID.TID 0000.0001)  S/R SEAICE_KRYLOV: Picard iterate / total =     20 /   1720, Nb. of FGMRES iterations =      1
(PID.TID 0000.0001)  S/R SEAICE_KRYLOV: Picard iterate / total, KRYLOVgamma_lin, initial norm =      21   1721 0.12500E-01 0.59987E-10
(PID.TID 0000.0001)  S/R SEAICE_KRYLOV: Picard iterate / total =     21 /   1721, Nb. of FGMRES iterations =      1
(PID.TID 0000.0001)  S/R SEAICE_KRYLOV: Picard iterate / total, KRYLOVgamma_lin, initial norm =      22   1722 0.12500E-01 0.29994E-10
(PID.TID 0000.0001)  S/R SEAICE_KRYLOV: Picard iterate / total =     22 /   1722, Nb. of FGMRES iterations =      1
(PID.TID 0000.0001)  S/R SEAICE_KRYLOV: Picard iterate / total, KRYLOVgamma_lin, initial norm =      23   1723 0.12500E-01 0.14997E-10
(PID.TID 0000.0001)  S/R SEAICE_KRYLOV: Picard iterate / total =     23 /   1723, Nb. of FGMRES iterations =      1
(PID.TID 0000.0001)  S/R SEAICE_KRYLOV: Picard iterate / total, KRYLOVgamma_lin, initial norm =      24   1724 0.12500E-01 0.74984E-11
(PID.TID 0000.0001)  S/R SEAICE_KRYLOV: Picard iterate / total =     24 /   1724, Nb. of FGMRES iterations =      1
(PID.TID 0000.0001)  S/R SEAICE_KRYLOV: Picard iterate / total, KRYLOVgamma_lin, initial norm =      25   1725 0.12500E-01 0.37492E-11
(PID.TID 0000.0001)  S/R SEAICE_KRYLOV: Picard iterate / total =     25 /   1725, Nb. of FGMRES iterations =      1
(PID.TID 0000.0001)  S/R SEAICE_KRYLOV: Picard iterate / total, KRYLOVgamma_lin, initial norm =      26   1726 0.12500E-01 0.18746E-11
(PID.TID 0000.0001)  S/R SEAICE_KRYLOV: Picard iterate / total =     26 /   1726, Nb. of FGMRES iterations =      1
(PID.TID 0000.0001)  S/R SEAICE_KRYLOV: Picard iterate / total, KRYLOVgamma_lin, initial norm =      27   1727 0.12500E-01 0.93730E-12
(PID.TID 0000.0001)  S/R SEAICE_KRYLOV: Picard iterate / total =     27 /   1727, Nb. of FGMRES iterations =      1
(PID.TID 0000.0001)  S/R SEAICE_KRYLOV: Picard iterate / total, KRYLOVgamma_lin, initial norm =      28   1728 0.12500E-01 0.46865E-12
(PID.TID 0000.0001)  S/R SEAICE_KRYLOV: Picard iterate / total =     28 /   1728, Nb. of FGMRES iterations =      1
(PID.TID 0000.0001)  S/R SEAICE_KRYLOV: Picard iterate / total, KRYLOVgamma_lin, initial norm =      29   1729 0.12500E-01 0.23432E-12
(PID.TID 0000.0001)  S/R SEAICE_KRYLOV: Picard iterate / total =     29 /   1729, Nb. of FGMRES iterations =      1
(PID.TID 0000.0001)  S/R SEAICE_KRYLOV: Picard iterate / total, KRYLOVgamma_lin, initial norm =      30   1730 0.12500E-01 0.11716E-12
(PID.TID 0000.0001)  S/R SEAICE_KRYLOV: Picard iterate / total =     30 /   1730, Nb. of FGMRES iterations =      1
(PID.TID 0000.0001)  S/R SEAICE_KRYLOV: Picard iterate / total, KRYLOVgamma_lin, final   norm =      31   1731 0.12500E-01 0.58580E-13
(PID.TID 0000.0001)  // =======================================================
(PID.TID 0000.0001)  // Begin KRYLOV statistics
(PID.TID 0000.0001)  // =======================================================
(PID.TID 0000.0001)  %KRYLOV_MON: time step              =         18
(PID.TID 0000.0001)  %KRYLOV_MON: Nb. of time steps      =          1
(PID.TID 0000.0001)  %KRYLOV_MON: Nb. of Picard steps    =         31
(PID.TID 0000.0001)  %KRYLOV_MON: Nb. of Krylov steps    =         30
(PID.TID 0000.0001)  %KRYLOV_MON: Nb. of Picard failures =          0
(PID.TID 0000.0001)  %KRYLOV_MON: Nb. of Krylov failures =          0
(PID.TID 0000.0001)  // =======================================================
(PID.TID 0000.0001)  // End KRYLOV statistics
(PID.TID 0000.0001)  // =======================================================
(PID.TID 0000.0001)  S/R SEAICE_KRYLOV: Total number FGMRES iterations =     30 in timestep         18
(PID.TID 0000.0001) // =======================================================
(PID.TID 0000.0001) // Begin MONITOR dynamic field statistics
(PID.TID 0000.0001) // =======================================================
(PID.TID 0000.0001) %MON time_tsnumber                =                    18
(PID.TID 0000.0001) %MON time_secondsf                =   4.5000000000000E+01
(PID.TID 0000.0001) %MON dynstat_eta_max              =   0.0000000000000E+00
(PID.TID 0000.0001) %MON dynstat_eta_min              =   0.0000000000000E+00
(PID.TID 0000.0001) %MON dynstat_eta_mean             =   0.0000000000000E+00
(PID.TID 0000.0001) %MON dynstat_eta_sd               =   0.0000000000000E+00
(PID.TID 0000.0001) %MON dynstat_eta_del2             =   0.0000000000000E+00
(PID.TID 0000.0001) %MON dynstat_uvel_max             =   9.8437500000000E-03
(PID.TID 0000.0001) %MON dynstat_uvel_min             =  -9.8437500000000E-03
(PID.TID 0000.0001) %MON dynstat_uvel_mean            =   0.0000000000000E+00
(PID.TID 0000.0001) %MON dynstat_uvel_sd              =   5.7727978755972E-03
(PID.TID 0000.0001) %MON dynstat_uvel_del2            =   1.0089048364799E-20
(PID.TID 0000.0001) %MON dynstat_vvel_max             =   9.8437500000000E-03
(PID.TID 0000.0001) %MON dynstat_vvel_min             =  -9.8437500000000E-03
(PID.TID 0000.0001) %MON dynstat_vvel_mean            =   0.0000000000000E+00
(PID.TID 0000.0001) %MON dynstat_vvel_sd              =   5.7727978755972E-03
(PID.TID 0000.0001) %MON dynstat_vvel_del2            =   1.0089048364799E-20
(PID.TID 0000.0001) %MON dynstat_wvel_max             =   1.1914062500000E-05
(PID.TID 0000.0001) %MON dynstat_wvel_min             =  -1.1914062500000E-05
(PID.TID 0000.0001) %MON dynstat_wvel_mean            =   3.4694469519536E-25
(PID.TID 0000.0001) %MON dynstat_wvel_sd              =   1.7200872247780E-06
(PID.TID 0000.0001) %MON dynstat_wvel_del2            =   2.8187489626940E-08
(PID.TID 0000.0001) %MON dynstat_theta_max            =  -1.6200000000000E+00
(PID.TID 0000.0001) %MON dynstat_theta_min            =  -1.6200000000000E+00
(PID.TID 0000.0001) %MON dynstat_theta_mean           =  -1.6200000000000E+00
(PID.TID 0000.0001) %MON dynstat_theta_sd             =   0.0000000000000E+00
(PID.TID 0000.0001) %MON dynstat_theta_del2           =   0.0000000000000E+00
(PID.TID 0000.0001) %MON dynstat_salt_max             =   3.0000000000000E+01
(PID.TID 0000.0001) %MON dynstat_salt_min             =   3.0000000000000E+01
(PID.TID 0000.0001) %MON dynstat_salt_mean            =   3.0000000000000E+01
(PID.TID 0000.0001) %MON dynstat_salt_sd              =   0.0000000000000E+00
(PID.TID 0000.0001) %MON dynstat_salt_del2            =   0.0000000000000E+00
(PID.TID 0000.0001) %MON trAdv_CFL_u_max              =   3.0761718750000E-06
(PID.TID 0000.0001) %MON trAdv_CFL_v_max              =   3.0761718750000E-06
(PID.TID 0000.0001) %MON trAdv_CFL_w_max              =   2.9785156250000E-06
(PID.TID 0000.0001) %MON advcfl_uvel_max              =   3.0761718750000E-06
(PID.TID 0000.0001) %MON advcfl_vvel_max              =   3.0761718750000E-06
(PID.TID 0000.0001) %MON advcfl_wvel_max              =   5.9570312500000E-06
(PID.TID 0000.0001) %MON advcfl_W_hf_max              =   0.0000000000000E+00
(PID.TID 0000.0001) %MON pe_b_mean                    =   0.0000000000000E+00
(PID.TID 0000.0001) %MON ke_max                       =   9.0844726562500E-05
(PID.TID 0000.0001) %MON ke_mean                      =   3.2804489135742E-05
(PID.TID 0000.0001) %MON ke_vol                       =   2.6214400000000E+12
(PID.TID 0000.0001) %MON vort_r_min                   =  -7.8125000000000E-08
(PID.TID 0000.0001) %MON vort_r_max                   =   1.2304687500000E-06
(PID.TID 0000.0001) %MON vort_a_mean                  =   1.4856000000000E-04
(PID.TID 0000.0001) %MON vort_a_sd                    =   1.5312918562496E-06
(PID.TID 0000.0001) %MON vort_p_mean                  =   1.5552375000000E-04
(PID.TID 0000.0001) %MON vort_p_sd                    =   5.5921473110222E-05
(PID.TID 0000.0001) %MON surfExpan_theta_mean         =   0.0000000000000E+00
(PID.TID 0000.0001) %MON surfExpan_salt_mean          =   1.3877787807814E-23
(PID.TID 0000.0001) // =======================================================
(PID.TID 0000.0001) // End MONITOR dynamic field statistics
(PID.TID 0000.0001) // =======================================================
(PID.TID 0000.0001) // =======================================================
(PID.TID 0000.0001) // Begin MONITOR SEAICE statistics
(PID.TID 0000.0001) // =======================================================
(PID.TID 0000.0001) %MON seaice_tsnumber              =                    18
(PID.TID 0000.0001) %MON seaice_time_sec              =   4.5000000000000E+01
(PID.TID 0000.0001) %MON seaice_uice_max              =   3.0631164685653E-02
(PID.TID 0000.0001) %MON seaice_uice_min              =  -3.1099516067795E-02
(PID.TID 0000.0001) %MON seaice_uice_mean             =  -1.1024777384444E-06
(PID.TID 0000.0001) %MON seaice_uice_sd               =   1.3159015821653E-02
(PID.TID 0000.0001) %MON seaice_uice_del2             =   4.1622552961983E-06
(PID.TID 0000.0001) %MON seaice_vice_max              =   2.9886740455805E-02
(PID.TID 0000.0001) %MON seaice_vice_min              =  -3.0217332846223E-02
(PID.TID 0000.0001) %MON seaice_vice_mean             =   3.3982159266033E-06
(PID.TID 0000.0001) %MON seaice_vice_sd               =   1.3098973618524E-02
(PID.TID 0000.0001) %MON seaice_vice_del2             =   4.1849542740627E-06
(PID.TID 0000.0001) %MON seaice_area_max              =   1.0000000000000E+00
(PID.TID 0000.0001) %MON seaice_area_min              =   9.9998786187578E-01
(PID.TID 0000.0001) %MON seaice_area_mean             =   9.9999930593447E-01
(PID.TID 0000.0001) %MON seaice_area_sd               =   1.6702117714618E-06
(PID.TID 0000.0001) %MON seaice_area_del2             =   2.1404309081289E-08
(PID.TID 0000.0001) %MON seaice_heff_max              =   3.0999848772210E-01
(PID.TID 0000.0001) %MON seaice_heff_min              =   2.9006037363671E-01
(PID.TID 0000.0001) %MON seaice_heff_mean             =   3.0067126525963E-01
(PID.TID 0000.0001) %MON seaice_heff_sd               =   5.0069294523738E-03
(PID.TID 0000.0001) %MON seaice_heff_del2             =   1.2853718714560E-05
(PID.TID 0000.0001) %MON seaice_hsnow_max             =   0.0000000000000E+00
(PID.TID 0000.0001) %MON seaice_hsnow_min             =   0.0000000000000E+00
(PID.TID 0000.0001) %MON seaice_hsnow_mean            =   0.0000000000000E+00
(PID.TID 0000.0001) %MON seaice_hsnow_sd              =   0.0000000000000E+00
(PID.TID 0000.0001) %MON seaice_hsnow_del2            =   0.0000000000000E+00
(PID.TID 0000.0001) // =======================================================
(PID.TID 0000.0001) // End MONITOR SEAICE statistics
(PID.TID 0000.0001) // =======================================================
 Computing Diagnostic #    163  SIuice       Counter:       1   Parms: UU      M1      
           Vector  Mate for  SIuice       Diagnostic #    164  SIvice   exists 
 Computing Diagnostic #    164  SIvice       Counter:       1   Parms: VV      M1      
           Vector  Mate for  SIvice       Diagnostic #    163  SIuice   exists 
 Computing Diagnostic #    149  SIheff       Counter:       1   Parms: SM      M1      
 Computing Diagnostic #    146  SIarea       Counter:       1   Parms: SM      M1      
 Computing Diagnostic #    228  SIshear      Counter:       1   Parms: SM      M1      
 Computing Diagnostic #    233  SIcohes      Counter:       1   Parms: SM      M1      
 Computing Diagnostic #    221  SIsig1       Counter:       1   Parms: SM      M1      
 Computing Diagnostic #    222  SIsig2       Counter:       1   Parms: SM      M1      
 Computing Diagnostic #    231  SIdamage     Counter:       1   Parms: SM      M1      
 Computing Diagnostic #    165  SItaux       Counter:       1   Parms: UU      U1      
           Vector  Mate for  SItaux       Diagnostic #    166  SItauy   exists 
 Computing Diagnostic #    166  SItauy       Counter:       1   Parms: VV      U1      
           Vector  Mate for  SItauy       Diagnostic #    165  SItaux   exists 
 Computing Diagnostic #    133  EXFuwind     Counter:       1   Parms: UM      U1      
 Computing Diagnostic #    134  EXFvwind     Counter:       1   Parms: VM      U1      
(PID.TID 0000.0001)  S/R SEAICE_KRYLOV: Picard iterate / total, KRYLOVgamma_lin, initial norm =       1   1801 0.10000E+00 0.10677E+00
(PID.TID 0000.0001)  S/R SEAICE_KRYLOV: Picard iterate / total =      1 /   1801, Nb. of FGMRES iterations =      1
(PID.TID 0000.0001)  S/R SEAICE_KRYLOV: Picard iterate / total, KRYLOVgamma_lin, initial norm =       2   1802 0.50000E-01 0.10029E-03
(PID.TID 0000.0001)  S/R SEAICE_KRYLOV: Picard iterate / total =      2 /   1802, Nb. of FGMRES iterations =      1
(PID.TID 0000.0001)  S/R SEAICE_KRYLOV: Picard iterate / total, KRYLOVgamma_lin, initial norm =       3   1803 0.50000E-01 0.12303E-04
(PID.TID 0000.0001)  S/R SEAICE_KRYLOV: Picard iterate / total =      3 /   1803, Nb. of FGMRES iterations =      1
(PID.TID 0000.0001)  S/R SEAICE_KRYLOV: Picard iterate / total, KRYLOVgamma_lin, initial norm =       4   1804 0.33333E-01 0.75345E-05
(PID.TID 0000.0001)  S/R SEAICE_KRYLOV: Picard iterate / total =      4 /   1804, Nb. of FGMRES iterations =      1
(PID.TID 0000.0001)  S/R SEAICE_KRYLOV: Picard iterate / total, KRYLOVgamma_lin, initial norm =       5   1805 0.33333E-01 0.36528E-05
(PID.TID 0000.0001)  S/R SEAICE_KRYLOV: Picard iterate / total =      5 /   1805, Nb. of FGMRES iterations =      1
(PID.TID 0000.0001)  S/R SEAICE_KRYLOV: Picard iterate / total, KRYLOVgamma_lin, initial norm =       6   1806 0.33333E-01 0.18339E-05
(PID.TID 0000.0001)  S/R SEAICE_KRYLOV: Picard iterate / total =      6 /   1806, Nb. of FGMRES iterations =      1
(PID.TID 0000.0001)  S/R SEAICE_KRYLOV: Picard iterate / total, KRYLOVgamma_lin, initial norm =       7   1807 0.33333E-01 0.91644E-06
(PID.TID 0000.0001)  S/R SEAICE_KRYLOV: Picard iterate / total =      7 /   1807, Nb. of FGMRES iterations =      1
(PID.TID 0000.0001)  S/R SEAICE_KRYLOV: Picard iterate / total, KRYLOVgamma_lin, initial norm =       8   1808 0.25000E-01 0.45826E-06
(PID.TID 0000.0001)  S/R SEAICE_KRYLOV: Picard iterate / total =      8 /   1808, Nb. of FGMRES iterations =      1
(PID.TID 0000.0001)  S/R SEAICE_KRYLOV: Picard iterate / total, KRYLOVgamma_lin, initial norm =       9   1809 0.20000E-01 0.22913E-06
(PID.TID 0000.0001)  S/R SEAICE_KRYLOV: Picard iterate / total =      9 /   1809, Nb. of FGMRES iterations =      1
(PID.TID 0000.0001)  S/R SEAICE_KRYLOV: Picard iterate / total, KRYLOVgamma_lin, initial norm =      10   1810 0.12500E-01 0.11456E-06
(PID.TID 0000.0001)  S/R SEAICE_KRYLOV: Picard iterate / total =     10 /   1810, Nb. of FGMRES iterations =      1
(PID.TID 0000.0001)  S/R SEAICE_KRYLOV: Picard iterate / total, KRYLOVgamma_lin, initial norm =      11   1811 0.12500E-01 0.57281E-07
(PID.TID 0000.0001)  S/R SEAICE_KRYLOV: Picard iterate / total =     11 /   1811, Nb. of FGMRES iterations =      1
(PID.TID 0000.0001)  S/R SEAICE_KRYLOV: Picard iterate / total, KRYLOVgamma_lin, initial norm =      12   1812 0.12500E-01 0.28641E-07
(PID.TID 0000.0001)  S/R SEAICE_KRYLOV: Picard iterate / total =     12 /   1812, Nb. of FGMRES iterations =      1
(PID.TID 0000.0001)  S/R SEAICE_KRYLOV: Picard iterate / total, KRYLOVgamma_lin, initial norm =      13   1813 0.12500E-01 0.14320E-07
(PID.TID 0000.0001)  S/R SEAICE_KRYLOV: Picard iterate / total =     13 /   1813, Nb. of FGMRES iterations =      1
(PID.TID 0000.0001)  S/R SEAICE_KRYLOV: Picard iterate / total, KRYLOVgamma_lin, initial norm =      14   1814 0.12500E-01 0.71602E-08
(PID.TID 0000.0001)  S/R SEAICE_KRYLOV: Picard iterate / total =     14 /   1814, Nb. of FGMRES iterations =      1
(PID.TID 0000.0001)  S/R SEAICE_KRYLOV: Picard iterate / total, KRYLOVgamma_lin, initial norm =      15   1815 0.12500E-01 0.35801E-08
(PID.TID 0000.0001)  S/R SEAICE_KRYLOV: Picard iterate / total =     15 /   1815, Nb. of FGMRES iterations =      1
(PID.TID 0000.0001)  S/R SEAICE_KRYLOV: Picard iterate / total, KRYLOVgamma_lin, initial norm =      16   1816 0.12500E-01 0.17900E-08
(PID.TID 0000.0001)  S/R SEAICE_KRYLOV: Picard iterate / total =     16 /   1816, Nb. of FGMRES iterations =      1
(PID.TID 0000.0001)  S/R SEAICE_KRYLOV: Picard iterate / total, KRYLOVgamma_lin, initial norm =      17   1817 0.12500E-01 0.89502E-09
(PID.TID 0000.0001)  S/R SEAICE_KRYLOV: Picard iterate / total =     17 /   1817, Nb. of FGMRES iterations =      1
(PID.TID 0000.0001)  S/R SEAICE_KRYLOV: Picard iterate / total, KRYLOVgamma_lin, initial norm =      18   1818 0.12500E-01 0.44751E-09
(PID.TID 0000.0001)  S/R SEAICE_KRYLOV: Picard iterate / total =     18 /   1818, Nb. of FGMRES iterations =      1
(PID.TID 0000.0001)  S/R SEAICE_KRYLOV: Picard iterate / total, KRYLOVgamma_lin, initial norm =      19   1819 0.12500E-01 0.22376E-09
(PID.TID 0000.0001)  S/R SEAICE_KRYLOV: Picard iterate / total =     19 /   1819, Nb. of FGMRES iterations =      1
(PID.TID 0000.0001)  S/R SEAICE_KRYLOV: Picard iterate / total, KRYLOVgamma_lin, initial norm =      20   1820 0.12500E-01 0.11188E-09
(PID.TID 0000.0001)  S/R SEAICE_KRYLOV: Picard iterate / total =     20 /   1820, Nb. of FGMRES iterations =      1
(PID.TID 0000.0001)  S/R SEAICE_KRYLOV: Picard iterate / total, KRYLOVgamma_lin, initial norm =      21   1821 0.12500E-01 0.55939E-10
(PID.TID 0000.0001)  S/R SEAICE_KRYLOV: Picard iterate / total =     21 /   1821, Nb. of FGMRES iterations =      1
(PID.TID 0000.0001)  S/R SEAICE_KRYLOV: Picard iterate / total, KRYLOVgamma_lin, initial norm =      22   1822 0.12500E-01 0.27969E-10
(PID.TID 0000.0001)  S/R SEAICE_KRYLOV: Picard iterate / total =     22 /   1822, Nb. of FGMRES iterations =      1
(PID.TID 0000.0001)  S/R SEAICE_KRYLOV: Picard iterate / total, KRYLOVgamma_lin, initial norm =      23   1823 0.12500E-01 0.13985E-10
(PID.TID 0000.0001)  S/R SEAICE_KRYLOV: Picard iterate / total =     23 /   1823, Nb. of FGMRES iterations =      1
(PID.TID 0000.0001)  S/R SEAICE_KRYLOV: Picard iterate / total, KRYLOVgamma_lin, initial norm =      24   1824 0.12500E-01 0.69924E-11
(PID.TID 0000.0001)  S/R SEAICE_KRYLOV: Picard iterate / total =     24 /   1824, Nb. of FGMRES iterations =      1
(PID.TID 0000.0001)  S/R SEAICE_KRYLOV: Picard iterate / total, KRYLOVgamma_lin, initial norm =      25   1825 0.12500E-01 0.34962E-11
(PID.TID 0000.0001)  S/R SEAICE_KRYLOV: Picard iterate / total =     25 /   1825, Nb. of FGMRES iterations =      1
(PID.TID 0000.0001)  S/R SEAICE_KRYLOV: Picard iterate / total, KRYLOVgamma_lin, initial norm =      26   1826 0.12500E-01 0.17481E-11
(PID.TID 0000.0001)  S/R SEAICE_KRYLOV: Picard iterate / total =     26 /   1826, Nb. of FGMRES iterations =      1
(PID.TID 0000.0001)  S/R SEAICE_KRYLOV: Picard iterate / total, KRYLOVgamma_lin, initial norm =      27   1827 0.12500E-01 0.87404E-12
(PID.TID 0000.0001)  S/R SEAICE_KRYLOV: Picard iterate / total =     27 /   1827, Nb. of FGMRES iterations =      1
(PID.TID 0000.0001)  S/R SEAICE_KRYLOV: Picard iterate / total, KRYLOVgamma_lin, initial norm =      28   1828 0.12500E-01 0.43703E-12
(PID.TID 0000.0001)  S/R SEAICE_KRYLOV: Picard iterate / total =     28 /   1828, Nb. of FGMRES iterations =      1
(PID.TID 0000.0001)  S/R SEAICE_KRYLOV: Picard iterate / total, KRYLOVgamma_lin, initial norm =      29   1829 0.12500E-01 0.21851E-12
(PID.TID 0000.0001)  S/R SEAICE_KRYLOV: Picard iterate / total =     29 /   1829, Nb. of FGMRES iterations =      1
(PID.TID 0000.0001)  S/R SEAICE_KRYLOV: Picard iterate / total, KRYLOVgamma_lin, initial norm =      30   1830 0.12500E-01 0.10926E-12
(PID.TID 0000.0001)  S/R SEAICE_KRYLOV: Picard iterate / total =     30 /   1830, Nb. of FGMRES iterations =      1
(PID.TID 0000.0001)  S/R SEAICE_KRYLOV: Picard iterate / total, KRYLOVgamma_lin, final   norm =      31   1831 0.12500E-01 0.54624E-13
(PID.TID 0000.0001)  // =======================================================
(PID.TID 0000.0001)  // Begin KRYLOV statistics
(PID.TID 0000.0001)  // =======================================================
(PID.TID 0000.0001)  %KRYLOV_MON: time step              =         19
(PID.TID 0000.0001)  %KRYLOV_MON: Nb. of time steps      =          1
(PID.TID 0000.0001)  %KRYLOV_MON: Nb. of Picard steps    =         31
(PID.TID 0000.0001)  %KRYLOV_MON: Nb. of Krylov steps    =         30
(PID.TID 0000.0001)  %KRYLOV_MON: Nb. of Picard failures =          0
(PID.TID 0000.0001)  %KRYLOV_MON: Nb. of Krylov failures =          0
(PID.TID 0000.0001)  // =======================================================
(PID.TID 0000.0001)  // End KRYLOV statistics
(PID.TID 0000.0001)  // =======================================================
(PID.TID 0000.0001)  S/R SEAICE_KRYLOV: Total number FGMRES iterations =     30 in timestep         19
(PID.TID 0000.0001) // =======================================================
(PID.TID 0000.0001) // Begin MONITOR dynamic field statistics
(PID.TID 0000.0001) // =======================================================
(PID.TID 0000.0001) %MON time_tsnumber                =                    19
(PID.TID 0000.0001) %MON time_secondsf                =   4.7500000000000E+01
(PID.TID 0000.0001) %MON dynstat_eta_max              =   0.0000000000000E+00
(PID.TID 0000.0001) %MON dynstat_eta_min              =   0.0000000000000E+00
(PID.TID 0000.0001) %MON dynstat_eta_mean             =   0.0000000000000E+00
(PID.TID 0000.0001) %MON dynstat_eta_sd               =   0.0000000000000E+00
(PID.TID 0000.0001) %MON dynstat_eta_del2             =   0.0000000000000E+00
(PID.TID 0000.0001) %MON dynstat_uvel_max             =   9.8437500000000E-03
(PID.TID 0000.0001) %MON dynstat_uvel_min             =  -9.8437500000000E-03
(PID.TID 0000.0001) %MON dynstat_uvel_mean            =   0.0000000000000E+00
(PID.TID 0000.0001) %MON dynstat_uvel_sd              =   5.7727978755972E-03
(PID.TID 0000.0001) %MON dynstat_uvel_del2            =   1.0089048364799E-20
(PID.TID 0000.0001) %MON dynstat_vvel_max             =   9.8437500000000E-03
(PID.TID 0000.0001) %MON dynstat_vvel_min             =  -9.8437500000000E-03
(PID.TID 0000.0001) %MON dynstat_vvel_mean            =   0.0000000000000E+00
(PID.TID 0000.0001) %MON dynstat_vvel_sd              =   5.7727978755972E-03
(PID.TID 0000.0001) %MON dynstat_vvel_del2            =   1.0089048364799E-20
(PID.TID 0000.0001) %MON dynstat_wvel_max             =   1.1914062500000E-05
(PID.TID 0000.0001) %MON dynstat_wvel_min             =  -1.1914062500000E-05
(PID.TID 0000.0001) %MON dynstat_wvel_mean            =   3.4694469519536E-25
(PID.TID 0000.0001) %MON dynstat_wvel_sd              =   1.7200872247780E-06
(PID.TID 0000.0001) %MON dynstat_wvel_del2            =   2.8187489626940E-08
(PID.TID 0000.0001) %MON dynstat_theta_max            =  -1.6200000000000E+00
(PID.TID 0000.0001) %MON dynstat_theta_min            =  -1.6200000000000E+00
(PID.TID 0000.0001) %MON dynstat_theta_mean           =  -1.6200000000000E+00
(PID.TID 0000.0001) %MON dynstat_theta_sd             =   0.0000000000000E+00
(PID.TID 0000.0001) %MON dynstat_theta_del2           =   0.0000000000000E+00
(PID.TID 0000.0001) %MON dynstat_salt_max             =   3.0000000000000E+01
(PID.TID 0000.0001) %MON dynstat_salt_min             =   3.0000000000000E+01
(PID.TID 0000.0001) %MON dynstat_salt_mean            =   3.0000000000000E+01
(PID.TID 0000.0001) %MON dynstat_salt_sd              =   0.0000000000000E+00
(PID.TID 0000.0001) %MON dynstat_salt_del2            =   0.0000000000000E+00
(PID.TID 0000.0001) %MON trAdv_CFL_u_max              =   3.0761718750000E-06
(PID.TID 0000.0001) %MON trAdv_CFL_v_max              =   3.0761718750000E-06
(PID.TID 0000.0001) %MON trAdv_CFL_w_max              =   2.9785156250000E-06
(PID.TID 0000.0001) %MON advcfl_uvel_max              =   3.0761718750000E-06
(PID.TID 0000.0001) %MON advcfl_vvel_max              =   3.0761718750000E-06
(PID.TID 0000.0001) %MON advcfl_wvel_max              =   5.9570312500000E-06
(PID.TID 0000.0001) %MON advcfl_W_hf_max              =   0.0000000000000E+00
(PID.TID 0000.0001) %MON pe_b_mean                    =   0.0000000000000E+00
(PID.TID 0000.0001) %MON ke_max                       =   9.0844726562500E-05
(PID.TID 0000.0001) %MON ke_mean                      =   3.2804489135742E-05
(PID.TID 0000.0001) %MON ke_vol                       =   2.6214400000000E+12
(PID.TID 0000.0001) %MON vort_r_min                   =  -7.8125000000000E-08
(PID.TID 0000.0001) %MON vort_r_max                   =   1.2304687500000E-06
(PID.TID 0000.0001) %MON vort_a_mean                  =   1.4856000000000E-04
(PID.TID 0000.0001) %MON vort_a_sd                    =   1.5312918562496E-06
(PID.TID 0000.0001) %MON vort_p_mean                  =   1.5552375000000E-04
(PID.TID 0000.0001) %MON vort_p_sd                    =   5.5921473110222E-05
(PID.TID 0000.0001) %MON surfExpan_theta_mean         =   0.0000000000000E+00
(PID.TID 0000.0001) %MON surfExpan_salt_mean          =   1.3877787807814E-23
(PID.TID 0000.0001) // =======================================================
(PID.TID 0000.0001) // End MONITOR dynamic field statistics
(PID.TID 0000.0001) // =======================================================
(PID.TID 0000.0001) // =======================================================
(PID.TID 0000.0001) // Begin MONITOR SEAICE statistics
(PID.TID 0000.0001) // =======================================================
(PID.TID 0000.0001) %MON seaice_tsnumber              =                    19
(PID.TID 0000.0001) %MON seaice_time_sec              =   4.7500000000000E+01
(PID.TID 0000.0001) %MON seaice_uice_max              =   3.2290452943401E-02
(PID.TID 0000.0001) %MON seaice_uice_min              =  -3.2754907684712E-02
(PID.TID 0000.0001) %MON seaice_uice_mean             =  -1.1806574138236E-06
(PID.TID 0000.0001) %MON seaice_uice_sd               =   1.3864334854205E-02
(PID.TID 0000.0001) %MON seaice_uice_del2             =   4.3789603751933E-06
(PID.TID 0000.0001) %MON seaice_vice_max              =   3.1496429332554E-02
(PID.TID 0000.0001) %MON seaice_vice_min              =  -3.1841614662938E-02
(PID.TID 0000.0001) %MON seaice_vice_mean             =   3.5773452940253E-06
(PID.TID 0000.0001) %MON seaice_vice_sd               =   1.3801514550462E-02
(PID.TID 0000.0001) %MON seaice_vice_del2             =   4.4035457326642E-06
(PID.TID 0000.0001) %MON seaice_area_max              =   1.0000000000000E+00
(PID.TID 0000.0001) %MON seaice_area_min              =   9.9998649316776E-01
(PID.TID 0000.0001) %MON seaice_area_mean             =   9.9999923137933E-01
(PID.TID 0000.0001) %MON seaice_area_sd               =   1.8603543791769E-06
(PID.TID 0000.0001) %MON seaice_area_del2             =   2.3895558717333E-08
(PID.TID 0000.0001) %MON seaice_heff_max              =   3.0999846746676E-01
(PID.TID 0000.0001) %MON seaice_heff_min              =   2.9006035284298E-01
(PID.TID 0000.0001) %MON seaice_heff_mean             =   3.0067126525963E-01
(PID.TID 0000.0001) %MON seaice_heff_sd               =   5.0069303986829E-03
(PID.TID 0000.0001) %MON seaice_heff_del2             =   1.2853715684259E-05
(PID.TID 0000.0001) %MON seaice_hsnow_max             =   0.0000000000000E+00
(PID.TID 0000.0001) %MON seaice_hsnow_min             =   0.0000000000000E+00
(PID.TID 0000.0001) %MON seaice_hsnow_mean            =   0.0000000000000E+00
(PID.TID 0000.0001) %MON seaice_hsnow_sd              =   0.0000000000000E+00
(PID.TID 0000.0001) %MON seaice_hsnow_del2            =   0.0000000000000E+00
(PID.TID 0000.0001) // =======================================================
(PID.TID 0000.0001) // End MONITOR SEAICE statistics
(PID.TID 0000.0001) // =======================================================
 Computing Diagnostic #    163  SIuice       Counter:       1   Parms: UU      M1      
           Vector  Mate for  SIuice       Diagnostic #    164  SIvice   exists 
 Computing Diagnostic #    164  SIvice       Counter:       1   Parms: VV      M1      
           Vector  Mate for  SIvice       Diagnostic #    163  SIuice   exists 
 Computing Diagnostic #    149  SIheff       Counter:       1   Parms: SM      M1      
 Computing Diagnostic #    146  SIarea       Counter:       1   Parms: SM      M1      
 Computing Diagnostic #    228  SIshear      Counter:       1   Parms: SM      M1      
 Computing Diagnostic #    233  SIcohes      Counter:       1   Parms: SM      M1      
 Computing Diagnostic #    221  SIsig1       Counter:       1   Parms: SM      M1      
 Computing Diagnostic #    222  SIsig2       Counter:       1   Parms: SM      M1      
 Computing Diagnostic #    231  SIdamage     Counter:       1   Parms: SM      M1      
 Computing Diagnostic #    165  SItaux       Counter:       1   Parms: UU      U1      
           Vector  Mate for  SItaux       Diagnostic #    166  SItauy   exists 
 Computing Diagnostic #    166  SItauy       Counter:       1   Parms: VV      U1      
           Vector  Mate for  SItauy       Diagnostic #    165  SItaux   exists 
 Computing Diagnostic #    133  EXFuwind     Counter:       1   Parms: UM      U1      
 Computing Diagnostic #    134  EXFvwind     Counter:       1   Parms: VM      U1      
(PID.TID 0000.0001)  S/R SEAICE_KRYLOV: Picard iterate / total, KRYLOVgamma_lin, initial norm =       1   1901 0.10000E+00 0.10637E+00
(PID.TID 0000.0001)  S/R SEAICE_KRYLOV: Picard iterate / total =      1 /   1901, Nb. of FGMRES iterations =      1
(PID.TID 0000.0001)  S/R SEAICE_KRYLOV: Picard iterate / total, KRYLOVgamma_lin, initial norm =       2   1902 0.50000E-01 0.93717E-04
(PID.TID 0000.0001)  S/R SEAICE_KRYLOV: Picard iterate / total =      2 /   1902, Nb. of FGMRES iterations =      1
(PID.TID 0000.0001)  S/R SEAICE_KRYLOV: Picard iterate / total, KRYLOVgamma_lin, initial norm =       3   1903 0.50000E-01 0.11634E-04
(PID.TID 0000.0001)  S/R SEAICE_KRYLOV: Picard iterate / total =      3 /   1903, Nb. of FGMRES iterations =      1
(PID.TID 0000.0001)  S/R SEAICE_KRYLOV: Picard iterate / total, KRYLOVgamma_lin, initial norm =       4   1904 0.33333E-01 0.70317E-05
(PID.TID 0000.0001)  S/R SEAICE_KRYLOV: Picard iterate / total =      4 /   1904, Nb. of FGMRES iterations =      1
(PID.TID 0000.0001)  S/R SEAICE_KRYLOV: Picard iterate / total, KRYLOVgamma_lin, initial norm =       5   1905 0.33333E-01 0.34177E-05
(PID.TID 0000.0001)  S/R SEAICE_KRYLOV: Picard iterate / total =      5 /   1905, Nb. of FGMRES iterations =      1
(PID.TID 0000.0001)  S/R SEAICE_KRYLOV: Picard iterate / total, KRYLOVgamma_lin, initial norm =       6   1906 0.33333E-01 0.17151E-05
(PID.TID 0000.0001)  S/R SEAICE_KRYLOV: Picard iterate / total =      6 /   1906, Nb. of FGMRES iterations =      1
(PID.TID 0000.0001)  S/R SEAICE_KRYLOV: Picard iterate / total, KRYLOVgamma_lin, initial norm =       7   1907 0.33333E-01 0.85714E-06
(PID.TID 0000.0001)  S/R SEAICE_KRYLOV: Picard iterate / total =      7 /   1907, Nb. of FGMRES iterations =      1
(PID.TID 0000.0001)  S/R SEAICE_KRYLOV: Picard iterate / total, KRYLOVgamma_lin, initial norm =       8   1908 0.25000E-01 0.42860E-06
(PID.TID 0000.0001)  S/R SEAICE_KRYLOV: Picard iterate / total =      8 /   1908, Nb. of FGMRES iterations =      1
(PID.TID 0000.0001)  S/R SEAICE_KRYLOV: Picard iterate / total, KRYLOVgamma_lin, initial norm =       9   1909 0.20000E-01 0.21430E-06
(PID.TID 0000.0001)  S/R SEAICE_KRYLOV: Picard iterate / total =      9 /   1909, Nb. of FGMRES iterations =      1
(PID.TID 0000.0001)  S/R SEAICE_KRYLOV: Picard iterate / total, KRYLOVgamma_lin, initial norm =      10   1910 0.12500E-01 0.10715E-06
(PID.TID 0000.0001)  S/R SEAICE_KRYLOV: Picard iterate / total =     10 /   1910, Nb. of FGMRES iterations =      1
(PID.TID 0000.0001)  S/R SEAICE_KRYLOV: Picard iterate / total, KRYLOVgamma_lin, initial norm =      11   1911 0.12500E-01 0.53575E-07
(PID.TID 0000.0001)  S/R SEAICE_KRYLOV: Picard iterate / total =     11 /   1911, Nb. of FGMRES iterations =      1
(PID.TID 0000.0001)  S/R SEAICE_KRYLOV: Picard iterate / total, KRYLOVgamma_lin, initial norm =      12   1912 0.12500E-01 0.26787E-07
(PID.TID 0000.0001)  S/R SEAICE_KRYLOV: Picard iterate / total =     12 /   1912, Nb. of FGMRES iterations =      1
(PID.TID 0000.0001)  S/R SEAICE_KRYLOV: Picard iterate / total, KRYLOVgamma_lin, initial norm =      13   1913 0.12500E-01 0.13394E-07
(PID.TID 0000.0001)  S/R SEAICE_KRYLOV: Picard iterate / total =     13 /   1913, Nb. of FGMRES iterations =      1
(PID.TID 0000.0001)  S/R SEAICE_KRYLOV: Picard iterate / total, KRYLOVgamma_lin, initial norm =      14   1914 0.12500E-01 0.66968E-08
(PID.TID 0000.0001)  S/R SEAICE_KRYLOV: Picard iterate / total =     14 /   1914, Nb. of FGMRES iterations =      1
(PID.TID 0000.0001)  S/R SEAICE_KRYLOV: Picard iterate / total, KRYLOVgamma_lin, initial norm =      15   1915 0.12500E-01 0.33484E-08
(PID.TID 0000.0001)  S/R SEAICE_KRYLOV: Picard iterate / total =     15 /   1915, Nb. of FGMRES iterations =      1
(PID.TID 0000.0001)  S/R SEAICE_KRYLOV: Picard iterate / total, KRYLOVgamma_lin, initial norm =      16   1916 0.12500E-01 0.16742E-08
(PID.TID 0000.0001)  S/R SEAICE_KRYLOV: Picard iterate / total =     16 /   1916, Nb. of FGMRES iterations =      1
(PID.TID 0000.0001)  S/R SEAICE_KRYLOV: Picard iterate / total, KRYLOVgamma_lin, initial norm =      17   1917 0.12500E-01 0.83711E-09
(PID.TID 0000.0001)  S/R SEAICE_KRYLOV: Picard iterate / total =     17 /   1917, Nb. of FGMRES iterations =      1
(PID.TID 0000.0001)  S/R SEAICE_KRYLOV: Picard iterate / total, KRYLOVgamma_lin, initial norm =      18   1918 0.12500E-01 0.41855E-09
(PID.TID 0000.0001)  S/R SEAICE_KRYLOV: Picard iterate / total =     18 /   1918, Nb. of FGMRES iterations =      1
(PID.TID 0000.0001)  S/R SEAICE_KRYLOV: Picard iterate / total, KRYLOVgamma_lin, initial norm =      19   1919 0.12500E-01 0.20928E-09
(PID.TID 0000.0001)  S/R SEAICE_KRYLOV: Picard iterate / total =     19 /   1919, Nb. of FGMRES iterations =      1
(PID.TID 0000.0001)  S/R SEAICE_KRYLOV: Picard iterate / total, KRYLOVgamma_lin, initial norm =      20   1920 0.12500E-01 0.10464E-09
(PID.TID 0000.0001)  S/R SEAICE_KRYLOV: Picard iterate / total =     20 /   1920, Nb. of FGMRES iterations =      1
(PID.TID 0000.0001)  S/R SEAICE_KRYLOV: Picard iterate / total, KRYLOVgamma_lin, initial norm =      21   1921 0.12500E-01 0.52319E-10
(PID.TID 0000.0001)  S/R SEAICE_KRYLOV: Picard iterate / total =     21 /   1921, Nb. of FGMRES iterations =      1
(PID.TID 0000.0001)  S/R SEAICE_KRYLOV: Picard iterate / total, KRYLOVgamma_lin, initial norm =      22   1922 0.12500E-01 0.26160E-10
(PID.TID 0000.0001)  S/R SEAICE_KRYLOV: Picard iterate / total =     22 /   1922, Nb. of FGMRES iterations =      1
(PID.TID 0000.0001)  S/R SEAICE_KRYLOV: Picard iterate / total, KRYLOVgamma_lin, initial norm =      23   1923 0.12500E-01 0.13080E-10
(PID.TID 0000.0001)  S/R SEAICE_KRYLOV: Picard iterate / total =     23 /   1923, Nb. of FGMRES iterations =      1
(PID.TID 0000.0001)  S/R SEAICE_KRYLOV: Picard iterate / total, KRYLOVgamma_lin, initial norm =      24   1924 0.12500E-01 0.65399E-11
(PID.TID 0000.0001)  S/R SEAICE_KRYLOV: Picard iterate / total =     24 /   1924, Nb. of FGMRES iterations =      1
(PID.TID 0000.0001)  S/R SEAICE_KRYLOV: Picard iterate / total, KRYLOVgamma_lin, initial norm =      25   1925 0.12500E-01 0.32699E-11
(PID.TID 0000.0001)  S/R SEAICE_KRYLOV: Picard iterate / total =     25 /   1925, Nb. of FGMRES iterations =      1
(PID.TID 0000.0001)  S/R SEAICE_KRYLOV: Picard iterate / total, KRYLOVgamma_lin, initial norm =      26   1926 0.12500E-01 0.16350E-11
(PID.TID 0000.0001)  S/R SEAICE_KRYLOV: Picard iterate / total =     26 /   1926, Nb. of FGMRES iterations =      1
(PID.TID 0000.0001)  S/R SEAICE_KRYLOV: Picard iterate / total, KRYLOVgamma_lin, initial norm =      27   1927 0.12500E-01 0.81748E-12
(PID.TID 0000.0001)  S/R SEAICE_KRYLOV: Picard iterate / total =     27 /   1927, Nb. of FGMRES iterations =      1
(PID.TID 0000.0001)  S/R SEAICE_KRYLOV: Picard iterate / total, KRYLOVgamma_lin, initial norm =      28   1928 0.12500E-01 0.40875E-12
(PID.TID 0000.0001)  S/R SEAICE_KRYLOV: Picard iterate / total =     28 /   1928, Nb. of FGMRES iterations =      1
(PID.TID 0000.0001)  S/R SEAICE_KRYLOV: Picard iterate / total, KRYLOVgamma_lin, initial norm =      29   1929 0.12500E-01 0.20437E-12
(PID.TID 0000.0001)  S/R SEAICE_KRYLOV: Picard iterate / total =     29 /   1929, Nb. of FGMRES iterations =      1
(PID.TID 0000.0001)  S/R SEAICE_KRYLOV: Picard iterate / total, KRYLOVgamma_lin, final   norm =      30   1930 0.12500E-01 0.10220E-12
(PID.TID 0000.0001)  // =======================================================
(PID.TID 0000.0001)  // Begin KRYLOV statistics
(PID.TID 0000.0001)  // =======================================================
(PID.TID 0000.0001)  %KRYLOV_MON: time step              =         20
(PID.TID 0000.0001)  %KRYLOV_MON: Nb. of time steps      =          1
(PID.TID 0000.0001)  %KRYLOV_MON: Nb. of Picard steps    =         30
(PID.TID 0000.0001)  %KRYLOV_MON: Nb. of Krylov steps    =         29
(PID.TID 0000.0001)  %KRYLOV_MON: Nb. of Picard failures =          0
(PID.TID 0000.0001)  %KRYLOV_MON: Nb. of Krylov failures =          0
(PID.TID 0000.0001)  // =======================================================
(PID.TID 0000.0001)  // End KRYLOV statistics
(PID.TID 0000.0001)  // =======================================================
(PID.TID 0000.0001)  S/R SEAICE_KRYLOV: Total number FGMRES iterations =     29 in timestep         20
(PID.TID 0000.0001) // =======================================================
(PID.TID 0000.0001) // Begin MONITOR dynamic field statistics
(PID.TID 0000.0001) // =======================================================
(PID.TID 0000.0001) %MON time_tsnumber                =                    20
(PID.TID 0000.0001) %MON time_secondsf                =   5.0000000000000E+01
(PID.TID 0000.0001) %MON dynstat_eta_max              =   0.0000000000000E+00
(PID.TID 0000.0001) %MON dynstat_eta_min              =   0.0000000000000E+00
(PID.TID 0000.0001) %MON dynstat_eta_mean             =   0.0000000000000E+00
(PID.TID 0000.0001) %MON dynstat_eta_sd               =   0.0000000000000E+00
(PID.TID 0000.0001) %MON dynstat_eta_del2             =   0.0000000000000E+00
(PID.TID 0000.0001) %MON dynstat_uvel_max             =   9.8437500000000E-03
(PID.TID 0000.0001) %MON dynstat_uvel_min             =  -9.8437500000000E-03
(PID.TID 0000.0001) %MON dynstat_uvel_mean            =   0.0000000000000E+00
(PID.TID 0000.0001) %MON dynstat_uvel_sd              =   5.7727978755972E-03
(PID.TID 0000.0001) %MON dynstat_uvel_del2            =   1.0089048364799E-20
(PID.TID 0000.0001) %MON dynstat_vvel_max             =   9.8437500000000E-03
(PID.TID 0000.0001) %MON dynstat_vvel_min             =  -9.8437500000000E-03
(PID.TID 0000.0001) %MON dynstat_vvel_mean            =   0.0000000000000E+00
(PID.TID 0000.0001) %MON dynstat_vvel_sd              =   5.7727978755972E-03
(PID.TID 0000.0001) %MON dynstat_vvel_del2            =   1.0089048364799E-20
(PID.TID 0000.0001) %MON dynstat_wvel_max             =   1.1914062500000E-05
(PID.TID 0000.0001) %MON dynstat_wvel_min             =  -1.1914062500000E-05
(PID.TID 0000.0001) %MON dynstat_wvel_mean            =   3.4694469519536E-25
(PID.TID 0000.0001) %MON dynstat_wvel_sd              =   1.7200872247780E-06
(PID.TID 0000.0001) %MON dynstat_wvel_del2            =   2.8187489626940E-08
(PID.TID 0000.0001) %MON dynstat_theta_max            =  -1.6200000000000E+00
(PID.TID 0000.0001) %MON dynstat_theta_min            =  -1.6200000000000E+00
(PID.TID 0000.0001) %MON dynstat_theta_mean           =  -1.6200000000000E+00
(PID.TID 0000.0001) %MON dynstat_theta_sd             =   0.0000000000000E+00
(PID.TID 0000.0001) %MON dynstat_theta_del2           =   0.0000000000000E+00
(PID.TID 0000.0001) %MON dynstat_salt_max             =   3.0000000000000E+01
(PID.TID 0000.0001) %MON dynstat_salt_min             =   3.0000000000000E+01
(PID.TID 0000.0001) %MON dynstat_salt_mean            =   3.0000000000000E+01
(PID.TID 0000.0001) %MON dynstat_salt_sd              =   0.0000000000000E+00
(PID.TID 0000.0001) %MON dynstat_salt_del2            =   0.0000000000000E+00
(PID.TID 0000.0001) %MON trAdv_CFL_u_max              =   3.0761718750000E-06
(PID.TID 0000.0001) %MON trAdv_CFL_v_max              =   3.0761718750000E-06
(PID.TID 0000.0001) %MON trAdv_CFL_w_max              =   2.9785156250000E-06
(PID.TID 0000.0001) %MON advcfl_uvel_max              =   3.0761718750000E-06
(PID.TID 0000.0001) %MON advcfl_vvel_max              =   3.0761718750000E-06
(PID.TID 0000.0001) %MON advcfl_wvel_max              =   5.9570312500000E-06
(PID.TID 0000.0001) %MON advcfl_W_hf_max              =   0.0000000000000E+00
(PID.TID 0000.0001) %MON pe_b_mean                    =   0.0000000000000E+00
(PID.TID 0000.0001) %MON ke_max                       =   9.0844726562500E-05
(PID.TID 0000.0001) %MON ke_mean                      =   3.2804489135742E-05
(PID.TID 0000.0001) %MON ke_vol                       =   2.6214400000000E+12
(PID.TID 0000.0001) %MON vort_r_min                   =  -7.8125000000000E-08
(PID.TID 0000.0001) %MON vort_r_max                   =   1.2304687500000E-06
(PID.TID 0000.0001) %MON vort_a_mean                  =   1.4856000000000E-04
(PID.TID 0000.0001) %MON vort_a_sd                    =   1.5312918562496E-06
(PID.TID 0000.0001) %MON vort_p_mean                  =   1.5552375000000E-04
(PID.TID 0000.0001) %MON vort_p_sd                    =   5.5921473110222E-05
(PID.TID 0000.0001) %MON surfExpan_theta_mean         =   0.0000000000000E+00
(PID.TID 0000.0001) %MON surfExpan_salt_mean          =   1.3877787807814E-23
(PID.TID 0000.0001) // =======================================================
(PID.TID 0000.0001) // End MONITOR dynamic field statistics
(PID.TID 0000.0001) // =======================================================
(PID.TID 0000.0001) // =======================================================
(PID.TID 0000.0001) // Begin MONITOR SEAICE statistics
(PID.TID 0000.0001) // =======================================================
(PID.TID 0000.0001) %MON seaice_tsnumber              =                    20
(PID.TID 0000.0001) %MON seaice_time_sec              =   5.0000000000000E+01
(PID.TID 0000.0001) %MON seaice_uice_max              =   3.3945526624570E-02
(PID.TID 0000.0001) %MON seaice_uice_min              =  -3.4402705148959E-02
(PID.TID 0000.0001) %MON seaice_uice_mean             =  -1.2578919734523E-06
(PID.TID 0000.0001) %MON seaice_uice_sd               =   1.4566910465434E-02
(PID.TID 0000.0001) %MON seaice_uice_del2             =   4.5944578017858E-06
(PID.TID 0000.0001) %MON seaice_vice_max              =   3.3100920430274E-02
(PID.TID 0000.0001) %MON seaice_vice_min              =  -3.3460119197762E-02
(PID.TID 0000.0001) %MON seaice_vice_mean             =   3.7544430607459E-06
(PID.TID 0000.0001) %MON seaice_vice_sd               =   1.4501377894566E-02
(PID.TID 0000.0001) %MON seaice_vice_del2             =   4.6209902354436E-06
(PID.TID 0000.0001) %MON seaice_area_max              =   1.0000000000000E+00
(PID.TID 0000.0001) %MON seaice_area_min              =   9.9998505165409E-01
(PID.TID 0000.0001) %MON seaice_area_mean             =   9.9999915330559E-01
(PID.TID 0000.0001) %MON seaice_area_sd               =   2.0606908144537E-06
(PID.TID 0000.0001) %MON seaice_area_del2             =   2.6521091761734E-08
(PID.TID 0000.0001) %MON seaice_heff_max              =   3.0999844616334E-01
(PID.TID 0000.0001) %MON seaice_heff_min              =   2.9006033107730E-01
(PID.TID 0000.0001) %MON seaice_heff_mean             =   3.0067126525963E-01
(PID.TID 0000.0001) %MON seaice_heff_sd               =   5.0069313915949E-03
(PID.TID 0000.0001) %MON seaice_heff_del2             =   1.2853712661916E-05
(PID.TID 0000.0001) %MON seaice_hsnow_max             =   0.0000000000000E+00
(PID.TID 0000.0001) %MON seaice_hsnow_min             =   0.0000000000000E+00
(PID.TID 0000.0001) %MON seaice_hsnow_mean            =   0.0000000000000E+00
(PID.TID 0000.0001) %MON seaice_hsnow_sd              =   0.0000000000000E+00
(PID.TID 0000.0001) %MON seaice_hsnow_del2            =   0.0000000000000E+00
(PID.TID 0000.0001) // =======================================================
(PID.TID 0000.0001) // End MONITOR SEAICE statistics
(PID.TID 0000.0001) // =======================================================
 Computing Diagnostic #    163  SIuice       Counter:       1   Parms: UU      M1      
           Vector  Mate for  SIuice       Diagnostic #    164  SIvice   exists 
 Computing Diagnostic #    164  SIvice       Counter:       1   Parms: VV      M1      
           Vector  Mate for  SIvice       Diagnostic #    163  SIuice   exists 
 Computing Diagnostic #    149  SIheff       Counter:       1   Parms: SM      M1      
 Computing Diagnostic #    146  SIarea       Counter:       1   Parms: SM      M1      
 Computing Diagnostic #    228  SIshear      Counter:       1   Parms: SM      M1      
 Computing Diagnostic #    233  SIcohes      Counter:       1   Parms: SM      M1      
 Computing Diagnostic #    221  SIsig1       Counter:       1   Parms: SM      M1      
 Computing Diagnostic #    222  SIsig2       Counter:       1   Parms: SM      M1      
 Computing Diagnostic #    231  SIdamage     Counter:       1   Parms: SM      M1      
 Computing Diagnostic #    165  SItaux       Counter:       1   Parms: UU      U1      
           Vector  Mate for  SItaux       Diagnostic #    166  SItauy   exists 
 Computing Diagnostic #    166  SItauy       Counter:       1   Parms: VV      U1      
           Vector  Mate for  SItauy       Diagnostic #    165  SItaux   exists 
 Computing Diagnostic #    133  EXFuwind     Counter:       1   Parms: UM      U1      
 Computing Diagnostic #    134  EXFvwind     Counter:       1   Parms: VM      U1      
(PID.TID 0000.0001) %CHECKPOINT        20 ckptA
(PID.TID 0000.0001)   Seconds in section "ALL                    [THE_MODEL_MAIN]":
(PID.TID 0000.0001)           User time:   21.070082669612020
(PID.TID 0000.0001)         System time:   9.2961997725069523E-002
(PID.TID 0000.0001)     Wall clock time:   21.205044031143188
(PID.TID 0000.0001)          No. starts:           1
(PID.TID 0000.0001)           No. stops:           1
(PID.TID 0000.0001)   Seconds in section "INITIALISE_FIXED       [THE_MODEL_MAIN]":
(PID.TID 0000.0001)           User time:   1.4288999605923891E-002
(PID.TID 0000.0001)         System time:   5.6149999145418406E-003
(PID.TID 0000.0001)     Wall clock time:   2.1678209304809570E-002
(PID.TID 0000.0001)          No. starts:           1
(PID.TID 0000.0001)           No. stops:           1
(PID.TID 0000.0001)   Seconds in section "THE_MAIN_LOOP          [THE_MODEL_MAIN]":
(PID.TID 0000.0001)           User time:   21.055783761665225
(PID.TID 0000.0001)         System time:   8.7345997802913189E-002
(PID.TID 0000.0001)     Wall clock time:   21.183353900909424
(PID.TID 0000.0001)          No. starts:           1
(PID.TID 0000.0001)           No. stops:           1
(PID.TID 0000.0001)   Seconds in section "INITIALISE_VARIA    [THE_MAIN_LOOP]":
(PID.TID 0000.0001)           User time:   1.1659000068902969E-002
(PID.TID 0000.0001)         System time:   2.8219996020197868E-003
(PID.TID 0000.0001)     Wall clock time:   1.4739990234375000E-002
(PID.TID 0000.0001)          No. starts:           1
(PID.TID 0000.0001)           No. stops:           1
(PID.TID 0000.0001)   Seconds in section "MAIN LOOP           [THE_MAIN_LOOP]":
(PID.TID 0000.0001)           User time:   21.044112946838140
(PID.TID 0000.0001)         System time:   8.4521999582648277E-002
(PID.TID 0000.0001)     Wall clock time:   21.168603897094727
(PID.TID 0000.0001)          No. starts:           1
(PID.TID 0000.0001)           No. stops:           1
(PID.TID 0000.0001)   Seconds in section "MAIN_DO_LOOP        [THE_MAIN_LOOP]":
(PID.TID 0000.0001)           User time:   21.044044025242329
(PID.TID 0000.0001)         System time:   8.4517995826900005E-002
(PID.TID 0000.0001)     Wall clock time:   21.168529272079468
(PID.TID 0000.0001)          No. starts:          20
(PID.TID 0000.0001)           No. stops:          20
(PID.TID 0000.0001)   Seconds in section "FORWARD_STEP        [MAIN_DO_LOOP]":
(PID.TID 0000.0001)           User time:   21.043906152248383
(PID.TID 0000.0001)         System time:   8.4511985071003437E-002
(PID.TID 0000.0001)     Wall clock time:   21.168385028839111
(PID.TID 0000.0001)          No. starts:          20
(PID.TID 0000.0001)           No. stops:          20
(PID.TID 0000.0001)   Seconds in section "DO_STATEVARS_DIAGS  [FORWARD_STEP]":
(PID.TID 0000.0001)           User time:   2.8487611562013626E-003
(PID.TID 0000.0001)         System time:   7.9972669482231140E-006
(PID.TID 0000.0001)     Wall clock time:   2.8805732727050781E-003
(PID.TID 0000.0001)          No. starts:          40
(PID.TID 0000.0001)           No. stops:          40
(PID.TID 0000.0001)   Seconds in section "LOAD_FIELDS_DRIVER  [FORWARD_STEP]":
(PID.TID 0000.0001)           User time:   5.2896106615662575E-002
(PID.TID 0000.0001)         System time:   4.3699797242879868E-004
(PID.TID 0000.0001)     Wall clock time:   5.3329467773437500E-002
(PID.TID 0000.0001)          No. starts:          20
(PID.TID 0000.0001)           No. stops:          20
(PID.TID 0000.0001)   Seconds in section "EXF_GETFORCING     [LOAD_FLDS_DRIVER]":
(PID.TID 0000.0001)           User time:   5.2593544125556946E-002
(PID.TID 0000.0001)         System time:   4.1799712926149368E-004
(PID.TID 0000.0001)     Wall clock time:   5.3059339523315430E-002
(PID.TID 0000.0001)          No. starts:          20
(PID.TID 0000.0001)           No. stops:          20
(PID.TID 0000.0001)   Seconds in section "EXTERNAL_FLDS_LOAD [LOAD_FLDS_DRIVER]":
(PID.TID 0000.0001)           User time:   6.9085508584976196E-005
(PID.TID 0000.0001)         System time:   2.0004808902740479E-006
(PID.TID 0000.0001)     Wall clock time:   6.9141387939453125E-005
(PID.TID 0000.0001)          No. starts:          20
(PID.TID 0000.0001)           No. stops:          20
(PID.TID 0000.0001)   Seconds in section "DO_ATMOSPHERIC_PHYS [FORWARD_STEP]":
(PID.TID 0000.0001)           User time:   6.5632164478302002E-005
(PID.TID 0000.0001)         System time:   3.9972364902496338E-006
(PID.TID 0000.0001)     Wall clock time:   6.9379806518554688E-005
(PID.TID 0000.0001)          No. starts:          20
(PID.TID 0000.0001)           No. stops:          20
(PID.TID 0000.0001)   Seconds in section "DO_OCEANIC_PHYS     [FORWARD_STEP]":
(PID.TID 0000.0001)           User time:   20.847407065331936
(PID.TID 0000.0001)         System time:   5.5034992285072803E-002
(PID.TID 0000.0001)     Wall clock time:   20.902166128158569
(PID.TID 0000.0001)          No. starts:          20
(PID.TID 0000.0001)           No. stops:          20
(PID.TID 0000.0001)   Seconds in section "SEAICE_MODEL    [DO_OCEANIC_PHYS]":
(PID.TID 0000.0001)           User time:   20.840086396783590
(PID.TID 0000.0001)         System time:   5.4958993569016457E-002
(PID.TID 0000.0001)     Wall clock time:   20.894785642623901
(PID.TID 0000.0001)          No. starts:          20
(PID.TID 0000.0001)           No. stops:          20
(PID.TID 0000.0001)   Seconds in section "SEAICE_DYNSOLVER   [SEAICE_MODEL]":
(PID.TID 0000.0001)           User time:   20.771620813757181
(PID.TID 0000.0001)         System time:   5.4690998978912830E-002
(PID.TID 0000.0001)     Wall clock time:   20.826077699661255
(PID.TID 0000.0001)          No. starts:          20
(PID.TID 0000.0001)           No. stops:          20
(PID.TID 0000.0001)   Seconds in section "STRESS_ADV        [SEAICE_ADVDIFF]":
(PID.TID 0000.0001)           User time:   1.1336803436279297E-004
(PID.TID 0000.0001)         System time:   2.9960647225379944E-006
(PID.TID 0000.0001)     Wall clock time:   6.5088272094726562E-005
(PID.TID 0000.0001)          No. starts:          20
(PID.TID 0000.0001)           No. stops:          20
(PID.TID 0000.0001)   Seconds in section "THERMODYNAMICS      [FORWARD_STEP]":
(PID.TID 0000.0001)           User time:   7.7556371688842773E-003
(PID.TID 0000.0001)         System time:   2.0003877580165863E-005
(PID.TID 0000.0001)     Wall clock time:   7.7934265136718750E-003
(PID.TID 0000.0001)          No. starts:          20
(PID.TID 0000.0001)           No. stops:          20
(PID.TID 0000.0001)   Seconds in section "TRC_CORRECTION_STEP [FORWARD_STEP]":
(PID.TID 0000.0001)           User time:   6.7353248596191406E-005
(PID.TID 0000.0001)         System time:   5.0012022256851196E-006
(PID.TID 0000.0001)     Wall clock time:   7.1525573730468750E-005
(PID.TID 0000.0001)          No. starts:          20
(PID.TID 0000.0001)           No. stops:          20
(PID.TID 0000.0001)   Seconds in section "BLOCKING_EXCHANGES  [FORWARD_STEP]":
(PID.TID 0000.0001)           User time:   1.4705657958984375E-003
(PID.TID 0000.0001)         System time:   5.9995800256729126E-006
(PID.TID 0000.0001)     Wall clock time:   1.4779567718505859E-003
(PID.TID 0000.0001)          No. starts:          20
(PID.TID 0000.0001)           No. stops:          20
(PID.TID 0000.0001)   Seconds in section "MONITOR             [FORWARD_STEP]":
(PID.TID 0000.0001)           User time:   5.8027982711791992E-002
(PID.TID 0000.0001)         System time:   3.2400526106357574E-004
(PID.TID 0000.0001)     Wall clock time:   5.8391571044921875E-002
(PID.TID 0000.0001)          No. starts:          20
(PID.TID 0000.0001)           No. stops:          20
(PID.TID 0000.0001)   Seconds in section "DO_THE_MODEL_IO     [FORWARD_STEP]":
(PID.TID 0000.0001)           User time:   7.0599794387817383E-002
(PID.TID 0000.0001)         System time:   2.7517986483871937E-002
(PID.TID 0000.0001)     Wall clock time:  0.13698172569274902
(PID.TID 0000.0001)          No. starts:          20
(PID.TID 0000.0001)           No. stops:          20
(PID.TID 0000.0001)   Seconds in section "DO_WRITE_PICKUP     [FORWARD_STEP]":
(PID.TID 0000.0001)           User time:   1.8788576126098633E-003
(PID.TID 0000.0001)         System time:   1.0999981313943863E-003
(PID.TID 0000.0001)     Wall clock time:   4.4250488281250000E-003
(PID.TID 0000.0001)          No. starts:          20
(PID.TID 0000.0001)           No. stops:          20
(PID.TID 0000.0001) // ======================================================
(PID.TID 0000.0001) // Tile <-> Tile communication statistics
(PID.TID 0000.0001) // ======================================================
(PID.TID 0000.0001) // o Tile number: 000001
(PID.TID 0000.0001) //         No. X exchanges =              0
(PID.TID 0000.0001) //            Max. X spins =              0
(PID.TID 0000.0001) //            Min. X spins =     1000000000
(PID.TID 0000.0001) //          Total. X spins =              0
(PID.TID 0000.0001) //            Avg. X spins =       0.00E+00
(PID.TID 0000.0001) //         No. Y exchanges =              0
(PID.TID 0000.0001) //            Max. Y spins =              0
(PID.TID 0000.0001) //            Min. Y spins =     1000000000
(PID.TID 0000.0001) //          Total. Y spins =              0
(PID.TID 0000.0001) //            Avg. Y spins =       0.00E+00
(PID.TID 0000.0001) // o Thread number: 000001
(PID.TID 0000.0001) //            No. barriers =          10624
(PID.TID 0000.0001) //      Max. barrier spins =              1
(PID.TID 0000.0001) //      Min. barrier spins =              1
(PID.TID 0000.0001) //     Total barrier spins =          10624
(PID.TID 0000.0001) //      Avg. barrier spins =       1.00E+00
PROGRAM MAIN: Execution ended Normally
