(PID.TID 0000.0001) 
(PID.TID 0000.0001) // ======================================================
(PID.TID 0000.0001) //                      MITgcm UV
(PID.TID 0000.0001) //                      =========
(PID.TID 0000.0001) // ======================================================
(PID.TID 0000.0001) // execution environment starting up...
(PID.TID 0000.0001) 
(PID.TID 0000.0001) // MITgcmUV version:  checkpoint68e
(PID.TID 0000.0001) // Build user:        mlosch
(PID.TID 0000.0001) // Build host:        bkli04m056
(PID.TID 0000.0001) // Build date:        Tue Oct  3 11:35:29 CEST 2023
(PID.TID 0000.0001) 
(PID.TID 0000.0001) // =======================================================
(PID.TID 0000.0001) // Execution Environment parameter file "eedata"
(PID.TID 0000.0001) // =======================================================
(PID.TID 0000.0001) ># Example "eedata" file
(PID.TID 0000.0001) ># Lines beginning "#" are comments
(PID.TID 0000.0001) ># nTx - No. threads per process in X
(PID.TID 0000.0001) ># nTy - No. threads per process in Y
(PID.TID 0000.0001) > &EEPARMS
(PID.TID 0000.0001) > nTx=1,
(PID.TID 0000.0001) > nTy=1,
(PID.TID 0000.0001) > /
(PID.TID 0000.0001) 
(PID.TID 0000.0001) // =======================================================
(PID.TID 0000.0001) // Computational Grid Specification ( see files "SIZE.h" )
(PID.TID 0000.0001) //                                  ( and "eedata"       )
(PID.TID 0000.0001) // =======================================================
(PID.TID 0000.0001)      nPx =    1 ; /* No. processes in X */
(PID.TID 0000.0001)      nPy =    1 ; /* No. processes in Y */
(PID.TID 0000.0001)      nSx =    1 ; /* No. tiles in X per process */
(PID.TID 0000.0001)      nSy =    1 ; /* No. tiles in Y per process */
(PID.TID 0000.0001)      sNx =   65 ; /* Tile size in X */
(PID.TID 0000.0001)      sNy =   65 ; /* Tile size in Y */
(PID.TID 0000.0001)      OLx =    4 ; /* Tile overlap distance in X */
(PID.TID 0000.0001)      OLy =    4 ; /* Tile overlap distance in Y */
(PID.TID 0000.0001)      nTx =    1 ; /* No. threads in X per process */
(PID.TID 0000.0001)      nTy =    1 ; /* No. threads in Y per process */
(PID.TID 0000.0001)       Nr =    1 ; /* No. levels in the vertical   */
(PID.TID 0000.0001)       Nx =   65 ; /* Total domain size in X ( = nPx*nSx*sNx ) */
(PID.TID 0000.0001)       Ny =   65 ; /* Total domain size in Y ( = nPy*nSy*sNy ) */
(PID.TID 0000.0001)   nTiles =    1 ; /* Total no. tiles per process ( = nSx*nSy ) */
(PID.TID 0000.0001)   nProcs =    1 ; /* Total no. processes ( = nPx*nPy ) */
(PID.TID 0000.0001) nThreads =    1 ; /* Total no. threads per process ( = nTx*nTy ) */
(PID.TID 0000.0001) usingMPI =    F ; /* Flag used to control whether MPI is in use */
(PID.TID 0000.0001)                   /*  note: To execute a program with MPI calls */
(PID.TID 0000.0001)                   /*  it must be launched appropriately e.g     */
(PID.TID 0000.0001)                   /*  "mpirun -np 64 ......"                    */
(PID.TID 0000.0001) useCoupler=   F ; /* Flag used to control communications with   */
(PID.TID 0000.0001)                   /*  other model components, through a coupler */
(PID.TID 0000.0001) useNest2W_parent =    F ;/* Control 2-W Nesting comm */
(PID.TID 0000.0001) useNest2W_child  =    F ;/* Control 2-W Nesting comm */
(PID.TID 0000.0001) debugMode =    F ; /* print debug msg. (sequence of S/R calls)  */
(PID.TID 0000.0001) printMapIncludesZeros=    F ; /* print zeros in Std.Output maps */
(PID.TID 0000.0001) maxLengthPrt1D=   65 /* maxLength of 1D array printed to StdOut */
(PID.TID 0000.0001) 
(PID.TID 0000.0001) // ======================================================
(PID.TID 0000.0001) // Mapping of tiles to threads
(PID.TID 0000.0001) // ======================================================
(PID.TID 0000.0001) // -o- Thread   1, tiles (   1:   1,   1:   1)
(PID.TID 0000.0001) 
(PID.TID 0000.0001) // ======================================================
(PID.TID 0000.0001) // Tile <-> Tile connectvity table
(PID.TID 0000.0001) // ======================================================
(PID.TID 0000.0001) // Tile number: 000001 (process no. = 000000)
(PID.TID 0000.0001) //        WEST: Tile = 000001, Process = 000000, Comm = put
(PID.TID 0000.0001) //                bi = 000001, bj = 000001
(PID.TID 0000.0001) //        EAST: Tile = 000001, Process = 000000, Comm = put
(PID.TID 0000.0001) //                bi = 000001, bj = 000001
(PID.TID 0000.0001) //       SOUTH: Tile = 000001, Process = 000000, Comm = put
(PID.TID 0000.0001) //                bi = 000001, bj = 000001
(PID.TID 0000.0001) //       NORTH: Tile = 000001, Process = 000000, Comm = put
(PID.TID 0000.0001) //                bi = 000001, bj = 000001
(PID.TID 0000.0001) 
(PID.TID 0000.0001)  INI_PARMS: opening model parameter file "data"
(PID.TID 0000.0001)  OPEN_COPY_DATA_FILE: opening file data
(PID.TID 0000.0001) // =======================================================
(PID.TID 0000.0001) // Parameter file "data"
(PID.TID 0000.0001) // =======================================================
(PID.TID 0000.0001) >/ =======================================================
(PID.TID 0000.0001) >/ Parameter file "data"
(PID.TID 0000.0001) >/ =======================================================
(PID.TID 0000.0001) ># ====================
(PID.TID 0000.0001) ># | Model parameters |
(PID.TID 0000.0001) ># ====================
(PID.TID 0000.0001) >#
(PID.TID 0000.0001) > &PARM01
(PID.TID 0000.0001) > tRef= -1.62,
(PID.TID 0000.0001) > sRef= 30.,
(PID.TID 0000.0001) > HeatCapacity_Cp = 3986.,
(PID.TID 0000.0001) > rhoNil          = 1026.,
(PID.TID 0000.0001) > rhoConst        = 1026.,
(PID.TID 0000.0001) > rhoConstFresh   = 1000.,
(PID.TID 0000.0001) > f0=1.46e-4,
(PID.TID 0000.0001) > saltStepping=.FALSE.,
(PID.TID 0000.0001) > tempStepping=.FALSE.,
(PID.TID 0000.0001) > momStepping=.FALSE.,
(PID.TID 0000.0001) > readBinaryPrec=64,
(PID.TID 0000.0001) > writeBinaryPrec=32,
(PID.TID 0000.0001) > useSingleCpuIO=.TRUE.,
(PID.TID 0000.0001) >#debugLevel=4,
(PID.TID 0000.0001) > /
(PID.TID 0000.0001) >
(PID.TID 0000.0001) ># Elliptic solver parameters
(PID.TID 0000.0001) > &PARM02
(PID.TID 0000.0001) > cg2dMaxIters=500,
(PID.TID 0000.0001) > cg2dTargetResidual=1.E-12,
(PID.TID 0000.0001) > /
(PID.TID 0000.0001) >
(PID.TID 0000.0001) ># Time stepping parameters
(PID.TID 0000.0001) > &PARM03
(PID.TID 0000.0001) > startTime=0.0,
(PID.TID 0000.0001) ># 2 days
(PID.TID 0000.0001) >#endTime = 172800.,
(PID.TID 0000.0001) >#nTimeSteps = 1441,
(PID.TID 0000.0001) > nTimeSteps = 20,
(PID.TID 0000.0001) > deltaT=2.5,
(PID.TID 0000.0001) > abEps=0.1,
(PID.TID 0000.0001) > forcing_In_AB = .FALSE.,
(PID.TID 0000.0001) > writePickupAtEnd = .FALSE.,
(PID.TID 0000.0001) > dumpFreq  = 0.,
(PID.TID 0000.0001) > monitorSelect=2,
(PID.TID 0000.0001) > /
(PID.TID 0000.0001) >
(PID.TID 0000.0001) ># Gridding parameters
(PID.TID 0000.0001) > &PARM04
(PID.TID 0000.0001) > usingCartesianGrid=.TRUE.,
(PID.TID 0000.0001) > dxSpacing=8.E3,
(PID.TID 0000.0001) > dySpacing=8.E3,
(PID.TID 0000.0001) > delR= 10.,
(PID.TID 0000.0001) > /
(PID.TID 0000.0001) >
(PID.TID 0000.0001) ># Input datasets
(PID.TID 0000.0001) > &PARM05
(PID.TID 0000.0001) > bathyFile       = 'bathy_3c_8000.bin',
(PID.TID 0000.0001) > uVelInitFile    = 'uVel_8000.bin',
(PID.TID 0000.0001) > vVelInitFile    = 'vVel_8000.bin',
(PID.TID 0000.0001) > /
(PID.TID 0000.0001) 
(PID.TID 0000.0001)  INI_PARMS ; starts to read PARM01
(PID.TID 0000.0001)  INI_PARMS ; read PARM01 : OK
(PID.TID 0000.0001) S/R INI_PARMS: No request for barotropic solver
(PID.TID 0000.0001) S/R INI_PARMS: => Use implicitFreeSurface as default
(PID.TID 0000.0001)  INI_PARMS ; starts to read PARM02
(PID.TID 0000.0001)  INI_PARMS ; read PARM02 : OK
(PID.TID 0000.0001)  INI_PARMS ; starts to read PARM03
(PID.TID 0000.0001)  INI_PARMS ; read PARM03 : OK
(PID.TID 0000.0001)  INI_PARMS ; starts to read PARM04
(PID.TID 0000.0001)  INI_PARMS ; read PARM04 : OK
(PID.TID 0000.0001)  INI_PARMS ; starts to read PARM05
(PID.TID 0000.0001)  INI_PARMS ; read PARM05 : OK
(PID.TID 0000.0001)  INI_PARMS: finished reading file "data"
(PID.TID 0000.0001)  PACKAGES_BOOT: opening data.pkg
(PID.TID 0000.0001)  OPEN_COPY_DATA_FILE: opening file data.pkg
(PID.TID 0000.0001) // =======================================================
(PID.TID 0000.0001) // Parameter file "data.pkg"
(PID.TID 0000.0001) // =======================================================
(PID.TID 0000.0001) ># Packages
(PID.TID 0000.0001) > &PACKAGES
(PID.TID 0000.0001) >  useEXF    = .TRUE.,
(PID.TID 0000.0001) >  useSEAICE = .TRUE.,
(PID.TID 0000.0001) >  useDiagnostics=.TRUE.,
(PID.TID 0000.0001) > /
(PID.TID 0000.0001) 
(PID.TID 0000.0001)  PACKAGES_BOOT: finished reading data.pkg
(PID.TID 0000.0001) ** WARNING ** PACKAGES_BOOT: useCAL no longer set to T when using EXF (useEXF=T)
(PID.TID 0000.0001) ** WARNING ** PACKAGES_BOOT:  as it used to be before checkpoint66d (2017/02/13)
(PID.TID 0000.0001)  PACKAGES_BOOT: On/Off package Summary
 --------  pkgs with a standard "usePKG" On/Off switch in "data.pkg":  --------
 pkg/cal                  compiled but not used ( useCAL                   = F )
 pkg/exf                  compiled   and   used ( useEXF                   = T )
 pkg/seaice               compiled   and   used ( useSEAICE                = T )
 pkg/thsice               compiled but not used ( useThSIce                = F )
 pkg/diagnostics          compiled   and   used ( useDiagnostics           = T )
 pkg/mnc                  compiled but not used ( useMNC                   = F )
 -------- pkgs without standard "usePKG" On/Off switch in "data.pkg":  --------
 pkg/generic_advdiff      compiled but not used ( useGAD                   = F )
 pkg/mom_common           compiled but not used ( momStepping              = F )
 pkg/mom_vecinv           compiled but not used ( +vectorInvariantMomentum = F )
 pkg/mom_fluxform         compiled but not used ( & not vectorInvariantMom = F )
 pkg/monitor              compiled   and   used ( monitorFreq > 0.         = T )
 pkg/debug                compiled but not used ( debugMode                = F )
 pkg/rw                   compiled   and   used
 pkg/mdsio                compiled   and   used
(PID.TID 0000.0001)  PACKAGES_BOOT: End of package Summary
(PID.TID 0000.0001) 
(PID.TID 0000.0001) EXF_READPARMS: opening data.exf
(PID.TID 0000.0001)  OPEN_COPY_DATA_FILE: opening file data.exf
(PID.TID 0000.0001) // =======================================================
(PID.TID 0000.0001) // Parameter file "data.exf"
(PID.TID 0000.0001) // =======================================================
(PID.TID 0000.0001) >#
(PID.TID 0000.0001) ># *********************
(PID.TID 0000.0001) ># External Forcing Data
(PID.TID 0000.0001) ># *********************
(PID.TID 0000.0001) > &EXF_NML_01
(PID.TID 0000.0001) >#
(PID.TID 0000.0001) > useExfCheckRange  = .TRUE.,
(PID.TID 0000.0001) > repeatPeriod      = 1382400.0,
(PID.TID 0000.0001) > exf_iprec         = 64,
(PID.TID 0000.0001) > exf_monFreq       = 86400000.,
(PID.TID 0000.0001) > atmrho            = 1.3,
(PID.TID 0000.0001) >#useRelativeWind = .TRUE.,
(PID.TID 0000.0001) >#
(PID.TID 0000.0001) > /
(PID.TID 0000.0001) >
(PID.TID 0000.0001) ># *********************
(PID.TID 0000.0001) > &EXF_NML_02
(PID.TID 0000.0001) >#
(PID.TID 0000.0001) >#uwindstartdate1   = 00000101,
(PID.TID 0000.0001) >#uwindstartdate2   = 000000,
(PID.TID 0000.0001) > uwindperiod       = 10800.0,
(PID.TID 0000.0001) >#
(PID.TID 0000.0001) >#vwindstartdate1   = 00000101,
(PID.TID 0000.0001) >#vwindstartdate2   = 000000,
(PID.TID 0000.0001) > vwindperiod       = 10800.0,
(PID.TID 0000.0001) >#
(PID.TID 0000.0001) > uwindfile         = 'Uwindfield_shifted_8000.bin',
(PID.TID 0000.0001) > vwindfile         = 'Vwindfield_shifted_8000.bin',
(PID.TID 0000.0001) > /
(PID.TID 0000.0001) >
(PID.TID 0000.0001) ># *********************
(PID.TID 0000.0001) > &EXF_NML_03
(PID.TID 0000.0001) > /
(PID.TID 0000.0001) >
(PID.TID 0000.0001) ># *********************
(PID.TID 0000.0001) ># old open64 compiler (4.2.1) cannot skip this namelist to read in the next one;
(PID.TID 0000.0001) ># comment out this namelist (not read).
(PID.TID 0000.0001) >#&EXF_NML_04
(PID.TID 0000.0001) >#&
(PID.TID 0000.0001) >
(PID.TID 0000.0001) ># *********************
(PID.TID 0000.0001) > &EXF_NML_OBCS
(PID.TID 0000.0001) > /
(PID.TID 0000.0001) 
(PID.TID 0000.0001) EXF_READPARMS: reading EXF_NML_01
(PID.TID 0000.0001) EXF_READPARMS: reading EXF_NML_02
(PID.TID 0000.0001) EXF_READPARMS: reading EXF_NML_03
(PID.TID 0000.0001) EXF_READPARMS: finished reading data.exf
(PID.TID 0000.0001) 
(PID.TID 0000.0001)  SEAICE_READPARMS: opening data.seaice
(PID.TID 0000.0001)  OPEN_COPY_DATA_FILE: opening file data.seaice
(PID.TID 0000.0001) // =======================================================
(PID.TID 0000.0001) // Parameter file "data.seaice"
(PID.TID 0000.0001) // =======================================================
(PID.TID 0000.0001) ># SEAICE parameters
(PID.TID 0000.0001) > &SEAICE_PARM01
(PID.TID 0000.0001) > SEAICE_monFreq = 1.,
(PID.TID 0000.0001) > SEAICEwriteState = .TRUE.,
(PID.TID 0000.0001) > usePW79thermodynamics=.FALSE.,
(PID.TID 0000.0001) >#SEAICE_strength    = 27.5e+3,
(PID.TID 0000.0001) >#meb
(PID.TID 0000.0001) > SEAICE_strength    = 5.0e+8,
(PID.TID 0000.0001) > SEAICEcohesion     = 25.0e+1,
(PID.TID 0000.0001) > SEAICEhealingTime = 1e+5,
(PID.TID 0000.0001) > SEAICEuseIMEX= .TRUE.,
(PID.TID 0000.0001) > SEAICEuseMEB   = .TRUE.,
(PID.TID 0000.0001) > SEAICEuseKrylov = .TRUE.,
(PID.TID 0000.0001) > SEAICEdamageTime = 8.,
(PID.TID 0000.0001) >#SEAICEscaleSurfStress = .FALSE.,
(PID.TID 0000.0001) > SEAICE_rhoIce      = 900.,
(PID.TID 0000.0001) > SEAICE_drag        = 1.2e-3,
(PID.TID 0000.0001) > SEAICE_waterDrag   = 5.5e-3,
(PID.TID 0000.0001) > SEAICE_no_Slip     = .TRUE.,
(PID.TID 0000.0001) > SEAICE_deltaMin    = 2.e-9,
(PID.TID 0000.0001) >#SEAICEpressReplFac = 0.,
(PID.TID 0000.0001) > SEAICEuseJFNK       = .FALSE.,
(PID.TID 0000.0001) > SEAICEnonLinIterMax = 100,
(PID.TID 0000.0001) > SEAICEpreconLinIter = 10,
(PID.TID 0000.0001) > SEAICElinearIterMax = 50,
(PID.TID 0000.0001) > SEAICEnonLinTol     = 1.e-03,
(PID.TID 0000.0001) > SEAICE_JFNK_lsIter  = 10,
(PID.TID 0000.0001) > SEAICE_JFNK_tolIter = 50,
(PID.TID 0000.0001) > JFNKres_tFac        = 0.5,
(PID.TID 0000.0001) >#SEAICE_JFNKepsilon  = 1.D-06,
(PID.TID 0000.0001) > SEAICE_JFNKphi      = 0.7,
(PID.TID 0000.0001) > SEAICE_JFNKalpha    = 1.5,
(PID.TID 0000.0001) > SEAICEadvScheme    = 77,
(PID.TID 0000.0001) >#SEAICEadvSnow = .FALSE.,
(PID.TID 0000.0001) >#SEAICEadvHEFF = .FALSE.,
(PID.TID 0000.0001) >#SEAICEadvAREA = .FALSE.,
(PID.TID 0000.0001) >#SEAICE_initialHeff = 0.3,
(PID.TID 0000.0001) > HeffFile  = 'thickness_aniso_8000.bin',
(PID.TID 0000.0001) > AreaFile  = 'const_1.0_8000.bin',
(PID.TID 0000.0001) > HsnowFile = 'const_00_8000.bin',
(PID.TID 0000.0001) >#CohesFile = 'cohesion_8000.bin',
(PID.TID 0000.0001) > /
(PID.TID 0000.0001) >
(PID.TID 0000.0001) > &SEAICE_PARM03
(PID.TID 0000.0001) > /
(PID.TID 0000.0001) 
(PID.TID 0000.0001)  SEAICE_READPARMS: finished reading data.seaice
(PID.TID 0000.0001)  DIAGNOSTICS_READPARMS: opening data.diagnostics
(PID.TID 0000.0001)  OPEN_COPY_DATA_FILE: opening file data.diagnostics
(PID.TID 0000.0001) // =======================================================
(PID.TID 0000.0001) // Parameter file "data.diagnostics"
(PID.TID 0000.0001) // =======================================================
(PID.TID 0000.0001) ># Diagnostic Package Choices
(PID.TID 0000.0001) >#--------------------
(PID.TID 0000.0001) >#  dumpAtLast (logical): always write output at the end of simulation (default=F)
(PID.TID 0000.0001) >#  diag_mnc   (logical): write to NetCDF files (default=useMNC)
(PID.TID 0000.0001) >#--for each output-stream:
(PID.TID 0000.0001) >#  fileName(n) : prefix of the output file name (max 80c long) for outp.stream n
(PID.TID 0000.0001) >#  frequency(n):< 0 : write snap-shot output every |frequency| seconds
(PID.TID 0000.0001) >#               > 0 : write time-average output every frequency seconds
(PID.TID 0000.0001) >#  timePhase(n)     : write at time = timePhase + multiple of |frequency|
(PID.TID 0000.0001) >#    averagingFreq  : frequency (in s) for periodic averaging interval
(PID.TID 0000.0001) >#    averagingPhase : phase     (in s) for periodic averaging interval
(PID.TID 0000.0001) >#    repeatCycle    : number of averaging intervals in 1 cycle
(PID.TID 0000.0001) >#  levels(:,n) : list of levels to write to file (Notes: declared as REAL)
(PID.TID 0000.0001) >#                when this entry is missing, select all common levels of this list
(PID.TID 0000.0001) >#  fields(:,n) : list of selected diagnostics fields (8.c) in outp.stream n
(PID.TID 0000.0001) >#                (see "available_diagnostics.log" file for the full list of diags)
(PID.TID 0000.0001) >#  missing_value(n) : missing value for real-type fields in output file "n"
(PID.TID 0000.0001) >#  fileFlags(n)     : specific code (8c string) for output file "n"
(PID.TID 0000.0001) >#--------------------
(PID.TID 0000.0001) ># This example dumps EXF diagnostics as snapshot after 10 time-steps
(PID.TID 0000.0001) ># Note: EXF air-sea fluxes over Sea-Ice are wrong
(PID.TID 0000.0001) > &DIAGNOSTICS_LIST
(PID.TID 0000.0001) >   dumpAtLast  = .TRUE.,
(PID.TID 0000.0001) >#--
(PID.TID 0000.0001) >  fields(1:11,1) = 'EXFtaux ','EXFtauy ','EXFqnet ','EXFempmr',
(PID.TID 0000.0001) >                   'EXFhl   ','EXFhs   ','EXFswnet','EXFlwnet',
(PID.TID 0000.0001) >                   'EXFuwind','EXFvwind','EXFatemp',
(PID.TID 0000.0001) >#  fileName(1) = 'exfDiag',
(PID.TID 0000.0001) >  frequency(1) = 86400.,
(PID.TID 0000.0001) >
(PID.TID 0000.0001) >  fields(1:4,2)  = 'SIuice  ','SIvice  ','SIheff  ',
(PID.TID 0000.0001) >                   'SIarea  ',
(PID.TID 0000.0001) >#  fileName(2) = 'iceDiag',
(PID.TID 0000.0001) >  frequency(2) =  86400.,
(PID.TID 0000.0001) >  missing_value(2) = -999.,
(PID.TID 0000.0001) >
(PID.TID 0000.0001) >  fields(1:13,3)  = 'SIuice  ','SIvice  ','SIheff  ',
(PID.TID 0000.0001) >                   'SIarea  ','SIshear ','SIcohes ',
(PID.TID 0000.0001) >       	           'SIsig1  ','SIsig2  ','SIdamage',
(PID.TID 0000.0001) >		   'SItaux  ','SItauy  ',
(PID.TID 0000.0001) >		   'EXFuwind','EXFvwind',
(PID.TID 0000.0001) >   fileName(3) = 'snapshot',
(PID.TID 0000.0001) >  frequency(3) = 1.,
(PID.TID 0000.0001) ># frequency(3) = -1800.,
(PID.TID 0000.0001) ># timePhase(3) =  1800.,
(PID.TID 0000.0001) >  missing_value(3) = -999.,
(PID.TID 0000.0001) > /
(PID.TID 0000.0001) >
(PID.TID 0000.0001) >#--------------------
(PID.TID 0000.0001) ># Parameter for Diagnostics of per level statistics:
(PID.TID 0000.0001) >#--------------------
(PID.TID 0000.0001) >#  diagSt_mnc (logical): write stat-diags to NetCDF files (default=diag_mnc)
(PID.TID 0000.0001) >#  diagSt_regMaskFile : file containing the region-mask to read-in
(PID.TID 0000.0001) >#  nSetRegMskFile   : number of region-mask sets within the region-mask file
(PID.TID 0000.0001) >#  set_regMask(i)   : region-mask set-index that identifies the region "i"
(PID.TID 0000.0001) >#  val_regMask(i)   : region "i" identifier value in the region mask
(PID.TID 0000.0001) >#--for each output-stream:
(PID.TID 0000.0001) >#  stat_fName(n) : prefix of the output file name (max 80c long) for outp.stream n
(PID.TID 0000.0001) >#  stat_freq(n):< 0 : write snap-shot output every |stat_freq| seconds
(PID.TID 0000.0001) >#               > 0 : write time-average output every stat_freq seconds
(PID.TID 0000.0001) >#  stat_phase(n)    : write at time = stat_phase + multiple of |stat_freq|
(PID.TID 0000.0001) >#  stat_region(:,n) : list of "regions" (default: 1 region only=global)
(PID.TID 0000.0001) >#  stat_fields(:,n) : list of selected diagnostics fields (8.c) in outp.stream n
(PID.TID 0000.0001) >#                (see "available_diagnostics.log" file for the full list of diags)
(PID.TID 0000.0001) >#--------------------
(PID.TID 0000.0001) > &DIAG_STATIS_PARMS
(PID.TID 0000.0001) > stat_fields(1:5,1)  = 'SIarea  ','SIheff  ','SIhsnow ',
(PID.TID 0000.0001) >                       'SIuice  ','SIvice  ',
(PID.TID 0000.0001) ># stat_fName(1) = 'iceStDiag',
(PID.TID 0000.0001) >   stat_freq(1) = 86400.,
(PID.TID 0000.0001) ># stat_phase(1) = 1800.,
(PID.TID 0000.0001) > /
(PID.TID 0000.0001) 
(PID.TID 0000.0001) S/R DIAGNOSTICS_READPARMS, read namelist "diagnostics_list": start
(PID.TID 0000.0001) S/R DIAGNOSTICS_READPARMS, read namelist "diagnostics_list": OK
(PID.TID 0000.0001) S/R DIAGNOSTICS_READPARMS, read namelist "DIAG_STATIS_PARMS": start
(PID.TID 0000.0001) S/R DIAGNOSTICS_READPARMS, read namelist "DIAG_STATIS_PARMS": OK
(PID.TID 0000.0001)  DIAGNOSTICS_READPARMS: global parameter summary:
(PID.TID 0000.0001)  dumpAtLast = /* always write time-ave diags at the end */
(PID.TID 0000.0001)                   T
(PID.TID 0000.0001)     ;
(PID.TID 0000.0001)  diag_mnc =   /* write NetCDF output files */
(PID.TID 0000.0001)                   F
(PID.TID 0000.0001)     ;
(PID.TID 0000.0001)  useMissingValue = /* put MissingValue where mask = 0 */
(PID.TID 0000.0001)                   F
(PID.TID 0000.0001)     ;
(PID.TID 0000.0001)  diagCG_maxIters = /* max number of iters in diag_cg2d */
(PID.TID 0000.0001)                     500
(PID.TID 0000.0001)     ;
(PID.TID 0000.0001)  diagCG_resTarget = /* residual target for diag_cg2d */
(PID.TID 0000.0001)                 1.000000000000000E-12
(PID.TID 0000.0001)     ;
(PID.TID 0000.0001)  diagCG_pcOffDFac = /* preconditioner off-diagonal factor */
(PID.TID 0000.0001)                 9.611687812379854E-01
(PID.TID 0000.0001)     ;
(PID.TID 0000.0001) -----------------------------------------------------
(PID.TID 0000.0001)  DIAGNOSTICS_READPARMS: active diagnostics summary:
(PID.TID 0000.0001) -----------------------------------------------------
(PID.TID 0000.0001) Creating Output Stream: snapshot
(PID.TID 0000.0001) Output Frequency:          1.000000 ; Phase:           0.000000
(PID.TID 0000.0001)  Averaging Freq.:          1.000000 , Phase:           0.000000 , Cycle:   1
(PID.TID 0000.0001)  missing value: -9.990000000000E+02
(PID.TID 0000.0001)  Levels:    will be set later
(PID.TID 0000.0001)  Fields:    SIuice   SIvice   SIheff   SIarea   SIshear  SIcohes  SIsig1   SIsig2   SIdamage SItaux
(PID.TID 0000.0001)  Fields:    SItauy   EXFuwind EXFvwind
(PID.TID 0000.0001) -----------------------------------------------------
(PID.TID 0000.0001)  DIAGNOSTICS_READPARMS: statistics diags. summary:
(PID.TID 0000.0001) -----------------------------------------------------
(PID.TID 0000.0001) 
(PID.TID 0000.0001) SET_PARMS: done
(PID.TID 0000.0001) Enter INI_VERTICAL_GRID: setInterFDr=    T ; setCenterDr=    F
(PID.TID 0000.0001) %MON XC_max                       =   5.1600000000000E+05
(PID.TID 0000.0001) %MON XC_min                       =   4.0000000000000E+03
(PID.TID 0000.0001) %MON XC_mean                      =   2.6000000000000E+05
(PID.TID 0000.0001) %MON XC_sd                        =   1.5009330431435E+05
(PID.TID 0000.0001) %MON XG_max                       =   5.1200000000000E+05
(PID.TID 0000.0001) %MON XG_min                       =   0.0000000000000E+00
(PID.TID 0000.0001) %MON XG_mean                      =   2.5600000000000E+05
(PID.TID 0000.0001) %MON XG_sd                        =   1.5009330431435E+05
(PID.TID 0000.0001) %MON DXC_max                      =   8.0000000000000E+03
(PID.TID 0000.0001) %MON DXC_min                      =   8.0000000000000E+03
(PID.TID 0000.0001) %MON DXC_mean                     =   8.0000000000000E+03
(PID.TID 0000.0001) %MON DXC_sd                       =   0.0000000000000E+00
(PID.TID 0000.0001) %MON DXF_max                      =   8.0000000000000E+03
(PID.TID 0000.0001) %MON DXF_min                      =   8.0000000000000E+03
(PID.TID 0000.0001) %MON DXF_mean                     =   8.0000000000000E+03
(PID.TID 0000.0001) %MON DXF_sd                       =   0.0000000000000E+00
(PID.TID 0000.0001) %MON DXG_max                      =   8.0000000000000E+03
(PID.TID 0000.0001) %MON DXG_min                      =   8.0000000000000E+03
(PID.TID 0000.0001) %MON DXG_mean                     =   8.0000000000000E+03
(PID.TID 0000.0001) %MON DXG_sd                       =   0.0000000000000E+00
(PID.TID 0000.0001) %MON DXV_max                      =   8.0000000000000E+03
(PID.TID 0000.0001) %MON DXV_min                      =   8.0000000000000E+03
(PID.TID 0000.0001) %MON DXV_mean                     =   8.0000000000000E+03
(PID.TID 0000.0001) %MON DXV_sd                       =   0.0000000000000E+00
(PID.TID 0000.0001) %MON YC_max                       =   5.1600000000000E+05
(PID.TID 0000.0001) %MON YC_min                       =   4.0000000000000E+03
(PID.TID 0000.0001) %MON YC_mean                      =   2.6000000000000E+05
(PID.TID 0000.0001) %MON YC_sd                        =   1.5009330431435E+05
(PID.TID 0000.0001) %MON YG_max                       =   5.1200000000000E+05
(PID.TID 0000.0001) %MON YG_min                       =   0.0000000000000E+00
(PID.TID 0000.0001) %MON YG_mean                      =   2.5600000000000E+05
(PID.TID 0000.0001) %MON YG_sd                        =   1.5009330431435E+05
(PID.TID 0000.0001) %MON DYC_max                      =   8.0000000000000E+03
(PID.TID 0000.0001) %MON DYC_min                      =   8.0000000000000E+03
(PID.TID 0000.0001) %MON DYC_mean                     =   8.0000000000000E+03
(PID.TID 0000.0001) %MON DYC_sd                       =   0.0000000000000E+00
(PID.TID 0000.0001) %MON DYF_max                      =   8.0000000000000E+03
(PID.TID 0000.0001) %MON DYF_min                      =   8.0000000000000E+03
(PID.TID 0000.0001) %MON DYF_mean                     =   8.0000000000000E+03
(PID.TID 0000.0001) %MON DYF_sd                       =   0.0000000000000E+00
(PID.TID 0000.0001) %MON DYG_max                      =   8.0000000000000E+03
(PID.TID 0000.0001) %MON DYG_min                      =   8.0000000000000E+03
(PID.TID 0000.0001) %MON DYG_mean                     =   8.0000000000000E+03
(PID.TID 0000.0001) %MON DYG_sd                       =   0.0000000000000E+00
(PID.TID 0000.0001) %MON DYU_max                      =   8.0000000000000E+03
(PID.TID 0000.0001) %MON DYU_min                      =   8.0000000000000E+03
(PID.TID 0000.0001) %MON DYU_mean                     =   8.0000000000000E+03
(PID.TID 0000.0001) %MON DYU_sd                       =   0.0000000000000E+00
(PID.TID 0000.0001) %MON RA_max                       =   6.4000000000000E+07
(PID.TID 0000.0001) %MON RA_min                       =   6.4000000000000E+07
(PID.TID 0000.0001) %MON RA_mean                      =   6.4000000000000E+07
(PID.TID 0000.0001) %MON RA_sd                        =   0.0000000000000E+00
(PID.TID 0000.0001) %MON RAW_max                      =   6.4000000000000E+07
(PID.TID 0000.0001) %MON RAW_min                      =   6.4000000000000E+07
(PID.TID 0000.0001) %MON RAW_mean                     =   6.4000000000000E+07
(PID.TID 0000.0001) %MON RAW_sd                       =   0.0000000000000E+00
(PID.TID 0000.0001) %MON RAS_max                      =   6.4000000000000E+07
(PID.TID 0000.0001) %MON RAS_min                      =   6.4000000000000E+07
(PID.TID 0000.0001) %MON RAS_mean                     =   6.4000000000000E+07
(PID.TID 0000.0001) %MON RAS_sd                       =   0.0000000000000E+00
(PID.TID 0000.0001) %MON RAZ_max                      =   6.4000000000000E+07
(PID.TID 0000.0001) %MON RAZ_min                      =   6.4000000000000E+07
(PID.TID 0000.0001) %MON RAZ_mean                     =   6.4000000000000E+07
(PID.TID 0000.0001) %MON RAZ_sd                       =   0.0000000000000E+00
(PID.TID 0000.0001) %MON AngleCS_max                  =   1.0000000000000E+00
(PID.TID 0000.0001) %MON AngleCS_min                  =   1.0000000000000E+00
(PID.TID 0000.0001) %MON AngleCS_mean                 =   1.0000000000000E+00
(PID.TID 0000.0001) %MON AngleCS_sd                   =   0.0000000000000E+00
(PID.TID 0000.0001) %MON AngleSN_max                  =   0.0000000000000E+00
(PID.TID 0000.0001) %MON AngleSN_min                  =   0.0000000000000E+00
(PID.TID 0000.0001) %MON AngleSN_mean                 =   0.0000000000000E+00
(PID.TID 0000.0001) %MON AngleSN_sd                   =   0.0000000000000E+00
(PID.TID 0000.0001)  MDS_READ_FIELD: opening global file: bathy_3c_8000.bin
(PID.TID 0000.0001) // =======================================================
(PID.TID 0000.0001) // Field Model R_low (ini_masks_etc)
(PID.TID 0000.0001) // CMIN =         -1.000000000000000E+01
(PID.TID 0000.0001) // CMAX =         -1.000000000000000E+01
(PID.TID 0000.0001) // CINT =          0.000000000000000E+00
(PID.TID 0000.0001) // SYMBOLS (CMIN->CMAX): -abcdefghijklmnopqrstuvwxyz+
(PID.TID 0000.0001) //                  0.0: .
(PID.TID 0000.0001) // RANGE I (Lo:Hi:Step):(    -3:    69:     1)
(PID.TID 0000.0001) // RANGE J (Lo:Hi:Step):(    69:    -3:    -1)
(PID.TID 0000.0001) // RANGE K (Lo:Hi:Step):(   1:   1:   1)
(PID.TID 0000.0001) // =======================================================
(PID.TID 0000.0001) // =======================================================
(PID.TID 0000.0001) // END OF FIELD                                          =
(PID.TID 0000.0001) // =======================================================
(PID.TID 0000.0001) 
(PID.TID 0000.0001) // =======================================================
(PID.TID 0000.0001) // Field Model Ro_surf (ini_masks_etc)
(PID.TID 0000.0001) // CMIN =          1.000000000000000E+32
(PID.TID 0000.0001) // CMAX =         -1.000000000000000E+32
(PID.TID 0000.0001) // CINT =          0.000000000000000E+00
(PID.TID 0000.0001) // SYMBOLS (CMIN->CMAX): -abcdefghijklmnopqrstuvwxyz+
(PID.TID 0000.0001) //                  0.0: .
(PID.TID 0000.0001) // RANGE I (Lo:Hi:Step):(    -3:    69:     1)
(PID.TID 0000.0001) // RANGE J (Lo:Hi:Step):(    69:    -3:    -1)
(PID.TID 0000.0001) // RANGE K (Lo:Hi:Step):(   1:   1:   1)
(PID.TID 0000.0001) // =======================================================
(PID.TID 0000.0001) // =======================================================
(PID.TID 0000.0001) // END OF FIELD                                          =
(PID.TID 0000.0001) // =======================================================
(PID.TID 0000.0001) 
(PID.TID 0000.0001) // =======================================================
(PID.TID 0000.0001) // Field hFacC at iteration          0
(PID.TID 0000.0001) // CMIN =          1.000000000000000E+00
(PID.TID 0000.0001) // CMAX =          1.000000000000000E+00
(PID.TID 0000.0001) // CINT =          0.000000000000000E+00
(PID.TID 0000.0001) // SYMBOLS (CMIN->CMAX): -abcdefghijklmnopqrstuvwxyz+
(PID.TID 0000.0001) //                  0.0: .
(PID.TID 0000.0001) // RANGE I (Lo:Hi:Step):(    -3:    69:     1)
(PID.TID 0000.0001) // RANGE J (Lo:Hi:Step):(    69:    -3:    -1)
(PID.TID 0000.0001) // RANGE K (Lo:Hi:Step):(   1:   1:   1)
(PID.TID 0000.0001) // =======================================================
(PID.TID 0000.0001) // =======================================================
(PID.TID 0000.0001) // END OF FIELD                                          =
(PID.TID 0000.0001) // =======================================================
(PID.TID 0000.0001) 
(PID.TID 0000.0001) // =======================================================
(PID.TID 0000.0001) // Field hFacW at iteration          0
(PID.TID 0000.0001) // CMIN =          1.000000000000000E+00
(PID.TID 0000.0001) // CMAX =          1.000000000000000E+00
(PID.TID 0000.0001) // CINT =          0.000000000000000E+00
(PID.TID 0000.0001) // SYMBOLS (CMIN->CMAX): -abcdefghijklmnopqrstuvwxyz+
(PID.TID 0000.0001) //                  0.0: .
(PID.TID 0000.0001) // RANGE I (Lo:Hi:Step):(    -3:    69:     1)
(PID.TID 0000.0001) // RANGE J (Lo:Hi:Step):(    69:    -3:    -1)
(PID.TID 0000.0001) // RANGE K (Lo:Hi:Step):(   1:   1:   1)
(PID.TID 0000.0001) // =======================================================
(PID.TID 0000.0001) // =======================================================
(PID.TID 0000.0001) // END OF FIELD                                          =
(PID.TID 0000.0001) // =======================================================
(PID.TID 0000.0001) 
(PID.TID 0000.0001) // =======================================================
(PID.TID 0000.0001) // Field hFacS at iteration          0
(PID.TID 0000.0001) // CMIN =          1.000000000000000E+00
(PID.TID 0000.0001) // CMAX =          1.000000000000000E+00
(PID.TID 0000.0001) // CINT =          0.000000000000000E+00
(PID.TID 0000.0001) // SYMBOLS (CMIN->CMAX): -abcdefghijklmnopqrstuvwxyz+
(PID.TID 0000.0001) //                  0.0: .
(PID.TID 0000.0001) // RANGE I (Lo:Hi:Step):(    -3:    69:     1)
(PID.TID 0000.0001) // RANGE J (Lo:Hi:Step):(    69:    -3:    -1)
(PID.TID 0000.0001) // RANGE K (Lo:Hi:Step):(   1:   1:   1)
(PID.TID 0000.0001) // =======================================================
(PID.TID 0000.0001) // =======================================================
(PID.TID 0000.0001) // END OF FIELD                                          =
(PID.TID 0000.0001) // =======================================================
(PID.TID 0000.0001) 
(PID.TID 0000.0001) GAD_INIT_FIXED: GAD_OlMinSize=  0  0  1
(PID.TID 0000.0001) 
(PID.TID 0000.0001) // ===================================
(PID.TID 0000.0001) // GAD parameters :
(PID.TID 0000.0001) // ===================================
(PID.TID 0000.0001) tempAdvScheme =   /* Temp. Horiz.Advection scheme selector */
(PID.TID 0000.0001)                       2
(PID.TID 0000.0001)     ;
(PID.TID 0000.0001) tempVertAdvScheme =   /* Temp. Vert. Advection scheme selector */
(PID.TID 0000.0001)                       2
(PID.TID 0000.0001)     ;
(PID.TID 0000.0001) tempMultiDimAdvec =   /* use Muti-Dim Advec method for Temp */
(PID.TID 0000.0001)                   F
(PID.TID 0000.0001)     ;
(PID.TID 0000.0001) tempSOM_Advection = /* use 2nd Order Moment Advection for Temp */
(PID.TID 0000.0001)                   F
(PID.TID 0000.0001)     ;
(PID.TID 0000.0001) AdamsBashforthGt = /* apply Adams-Bashforth extrapolation on Gt */
(PID.TID 0000.0001)                   F
(PID.TID 0000.0001)     ;
(PID.TID 0000.0001) AdamsBashforth_T = /* apply Adams-Bashforth extrapolation on Temp */
(PID.TID 0000.0001)                   F
(PID.TID 0000.0001)     ;
(PID.TID 0000.0001) saltAdvScheme =   /* Salt. Horiz.advection scheme selector */
(PID.TID 0000.0001)                       2
(PID.TID 0000.0001)     ;
(PID.TID 0000.0001) saltVertAdvScheme =   /* Salt. Vert. Advection scheme selector */
(PID.TID 0000.0001)                       2
(PID.TID 0000.0001)     ;
(PID.TID 0000.0001) saltMultiDimAdvec =   /* use Muti-Dim Advec method for Salt */
(PID.TID 0000.0001)                   F
(PID.TID 0000.0001)     ;
(PID.TID 0000.0001) saltSOM_Advection = /* use 2nd Order Moment Advection for Salt */
(PID.TID 0000.0001)                   F
(PID.TID 0000.0001)     ;
(PID.TID 0000.0001) AdamsBashforthGs = /* apply Adams-Bashforth extrapolation on Gs */
(PID.TID 0000.0001)                   F
(PID.TID 0000.0001)     ;
(PID.TID 0000.0001) AdamsBashforth_S = /* apply Adams-Bashforth extrapolation on Salt */
(PID.TID 0000.0001)                   F
(PID.TID 0000.0001)     ;
(PID.TID 0000.0001) // ===================================
(PID.TID 0000.0001) 
(PID.TID 0000.0001) // =======================================================
(PID.TID 0000.0001) // External forcing (EXF) configuration >>> START <<<
(PID.TID 0000.0001) // =======================================================
(PID.TID 0000.0001) 
(PID.TID 0000.0001)  EXF general parameters:
(PID.TID 0000.0001) 
(PID.TID 0000.0001) exf_iprec = /* exf file precision */
(PID.TID 0000.0001)                      64
(PID.TID 0000.0001)     ;
(PID.TID 0000.0001) useExfYearlyFields = /* add extension _YEAR to input file names */
(PID.TID 0000.0001)                   F
(PID.TID 0000.0001)     ;
(PID.TID 0000.0001) twoDigitYear = /* use 2-digit year extension */
(PID.TID 0000.0001)                   F
(PID.TID 0000.0001)     ;
(PID.TID 0000.0001) useExfCheckRange = /* check for fields range */
(PID.TID 0000.0001)                   T
(PID.TID 0000.0001)     ;
(PID.TID 0000.0001) diags_opOceWeighted = /* weight flux diags by open-ocean fraction */
(PID.TID 0000.0001)                   T
(PID.TID 0000.0001)     ;
(PID.TID 0000.0001) exf_debugLev = /* select EXF-debug printing level */
(PID.TID 0000.0001)                       2
(PID.TID 0000.0001)     ;
(PID.TID 0000.0001) exf_monFreq  = /* EXF monitor frequency [ s ] */
(PID.TID 0000.0001)                 8.640000000000000E+07
(PID.TID 0000.0001)     ;
(PID.TID 0000.0001) exf_adjMonSelect = /* select group of exf AD-variables to monitor */
(PID.TID 0000.0001)                       1
(PID.TID 0000.0001)     ;
(PID.TID 0000.0001) repeatPeriod = /* period for cycling forcing dataset [ s ] */
(PID.TID 0000.0001)                 1.382400000000000E+06
(PID.TID 0000.0001)     ;
(PID.TID 0000.0001) climTempFreeze= /* Minimum climatological temperature [deg.C] */
(PID.TID 0000.0001)                -1.900000000000000E+00
(PID.TID 0000.0001)     ;
(PID.TID 0000.0001) windStressMax = /* Maximum absolute windstress [ Pa ] */
(PID.TID 0000.0001)                 2.000000000000000E+00
(PID.TID 0000.0001)     ;
(PID.TID 0000.0001) stressIsOnCgrid = /* set u,v_stress on Arakawa C-grid */
(PID.TID 0000.0001)                   F
(PID.TID 0000.0001)     ;
(PID.TID 0000.0001) rotateStressOnAgrid = /* rotate u,v_stress on Arakawa A-grid */
(PID.TID 0000.0001)                   F
(PID.TID 0000.0001)     ;
(PID.TID 0000.0001) cen2kel = /* conversion of deg. Centigrade to Kelvin [K] */
(PID.TID 0000.0001)                 2.731500000000000E+02
(PID.TID 0000.0001)     ;
(PID.TID 0000.0001) gravity_mks= /* gravitational acceleration [m/s^2] */
(PID.TID 0000.0001)                 9.810000000000000E+00
(PID.TID 0000.0001)     ;
(PID.TID 0000.0001) atmrho =  /* mean atmospheric density [kg/m^3] */
(PID.TID 0000.0001)                 1.300000000000000E+00
(PID.TID 0000.0001)     ;
(PID.TID 0000.0001) atmcp =  /* mean atmospheric specific heat [J/kg/K] */
(PID.TID 0000.0001)                 1.005000000000000E+03
(PID.TID 0000.0001)     ;
(PID.TID 0000.0001) flamb =  /* latent heat of evaporation [J/kg] */
(PID.TID 0000.0001)                 2.500000000000000E+06
(PID.TID 0000.0001)     ;
(PID.TID 0000.0001) flami =  /* latent heat of pure-ice melting [J/kg] */
(PID.TID 0000.0001)                 3.340000000000000E+05
(PID.TID 0000.0001)     ;
(PID.TID 0000.0001) cvapor_fac = /* const. for Saturation calculation [?] */
(PID.TID 0000.0001)                 6.403800000000000E+05
(PID.TID 0000.0001)     ;
(PID.TID 0000.0001) cvapor_exp = /* const. for Saturation calculation [?] */
(PID.TID 0000.0001)                 5.107400000000000E+03
(PID.TID 0000.0001)     ;
(PID.TID 0000.0001) cvapor_fac_ice= /* const. for Saturation calculation [?] */
(PID.TID 0000.0001)                 1.163780000000000E+07
(PID.TID 0000.0001)     ;
(PID.TID 0000.0001) cvapor_exp_ice= /* const. for Saturation calculation [?] */
(PID.TID 0000.0001)                 5.897800000000000E+03
(PID.TID 0000.0001)     ;
(PID.TID 0000.0001) humid_fac = /* humidity coef. in virtual temp. [(kg/kg)^-1] */
(PID.TID 0000.0001)                 6.060000000000000E-01
(PID.TID 0000.0001)     ;
(PID.TID 0000.0001) gamma_blk = /* adiabatic lapse rate [?] */
(PID.TID 0000.0001)                 1.000000000000000E-02
(PID.TID 0000.0001)     ;
(PID.TID 0000.0001) saltsat = /* reduction of Qsat over salty water [-] */
(PID.TID 0000.0001)                 9.800000000000000E-01
(PID.TID 0000.0001)     ;
(PID.TID 0000.0001) noNegativeEvap = /* prevent negative Evaporation */
(PID.TID 0000.0001)                   F
(PID.TID 0000.0001)     ;
(PID.TID 0000.0001) sstExtrapol = /* extrapolation coeff from lev. 1 & 2 to surf [-] */
(PID.TID 0000.0001)                 0.000000000000000E+00
(PID.TID 0000.0001)     ;
(PID.TID 0000.0001) cDrag_1 = /* coef used in drag calculation [?] */
(PID.TID 0000.0001)                 2.700000000000000E-03
(PID.TID 0000.0001)     ;
(PID.TID 0000.0001) cDrag_2 = /* coef used in drag calculation [?] */
(PID.TID 0000.0001)                 1.420000000000000E-04
(PID.TID 0000.0001)     ;
(PID.TID 0000.0001) cDrag_3 = /* coef used in drag calculation [?] */
(PID.TID 0000.0001)                 7.640000000000000E-05
(PID.TID 0000.0001)     ;
(PID.TID 0000.0001) cStanton_1 = /* coef used in Stanton number calculation [?] */
(PID.TID 0000.0001)                 3.270000000000000E-02
(PID.TID 0000.0001)     ;
(PID.TID 0000.0001) cStanton_2 = /* coef used in Stanton number calculation [?] */
(PID.TID 0000.0001)                 1.800000000000000E-02
(PID.TID 0000.0001)     ;
(PID.TID 0000.0001) cDalton = /* coef used in Dalton number calculation [?] */
(PID.TID 0000.0001)                 3.460000000000000E-02
(PID.TID 0000.0001)     ;
(PID.TID 0000.0001) exf_scal_BulkCdn= /* Drag coefficient scaling factor [-] */
(PID.TID 0000.0001)                 1.000000000000000E+00
(PID.TID 0000.0001)     ;
(PID.TID 0000.0001) zolmin = /* minimum stability parameter [?] */
(PID.TID 0000.0001)                -1.000000000000000E+02
(PID.TID 0000.0001)     ;
(PID.TID 0000.0001) psim_fac = /* coef used in turbulent fluxes calculation [-] */
(PID.TID 0000.0001)                 5.000000000000000E+00
(PID.TID 0000.0001)     ;
(PID.TID 0000.0001) zref =  /* reference height [ m ] */
(PID.TID 0000.0001)                 1.000000000000000E+01
(PID.TID 0000.0001)     ;
(PID.TID 0000.0001) hu =  /* height of mean wind [ m ] */
(PID.TID 0000.0001)                 1.000000000000000E+01
(PID.TID 0000.0001)     ;
(PID.TID 0000.0001) ht =  /* height of mean temperature [ m ] */
(PID.TID 0000.0001)                 2.000000000000000E+00
(PID.TID 0000.0001)     ;
(PID.TID 0000.0001) hq =  /* height of mean spec.humidity [ m ] */
(PID.TID 0000.0001)                 2.000000000000000E+00
(PID.TID 0000.0001)     ;
(PID.TID 0000.0001) uMin = /* minimum wind speed [m/s] */
(PID.TID 0000.0001)                 5.000000000000000E-01
(PID.TID 0000.0001)     ;
(PID.TID 0000.0001) useStabilityFct_overIce= /* transfert Coeffs over sea-ice depend on stability */
(PID.TID 0000.0001)                   F
(PID.TID 0000.0001)     ;
(PID.TID 0000.0001) exf_iceCd = /* drag coefficient over sea-ice (fixed) [-] */
(PID.TID 0000.0001)                 1.630000000000000E-03
(PID.TID 0000.0001)     ;
(PID.TID 0000.0001) exf_iceCe = /* transfert coeff. over sea-ice, for Evap (fixed) [-] */
(PID.TID 0000.0001)                 1.630000000000000E-03
(PID.TID 0000.0001)     ;
(PID.TID 0000.0001) exf_iceCh = /* transfert coeff. over sea-ice, Sens.Heat.(fixed)[-] */
(PID.TID 0000.0001)                 1.630000000000000E-03
(PID.TID 0000.0001)     ;
(PID.TID 0000.0001) exf_albedo =  /* Sea-water albedo [-] */
(PID.TID 0000.0001)                 1.000000000000000E-01
(PID.TID 0000.0001)     ;
(PID.TID 0000.0001) useExfZenAlbedo = /* Sea-water albedo varies with zenith angle */
(PID.TID 0000.0001)                   F
(PID.TID 0000.0001)     ;
(PID.TID 0000.0001) select_ZenAlbedo = /* Sea-water albedo computation method */
(PID.TID 0000.0001)                       0
(PID.TID 0000.0001)     ;
(PID.TID 0000.0001) useExfZenIncoming = /* compute incoming solar radiation */
(PID.TID 0000.0001)                   F
(PID.TID 0000.0001)     ;
(PID.TID 0000.0001) ocean_emissivity = /* longwave ocean-surface emissivity [-] */
(PID.TID 0000.0001)                 9.700176366843034E-01
(PID.TID 0000.0001)     ;
(PID.TID 0000.0001) ice_emissivity = /* longwave seaice emissivity [-] */
(PID.TID 0000.0001)                 9.500000000000000E-01
(PID.TID 0000.0001)     ;
(PID.TID 0000.0001) snow_emissivity = /* longwave snow  emissivity [-] */
(PID.TID 0000.0001)                 9.500000000000000E-01
(PID.TID 0000.0001)     ;
(PID.TID 0000.0001) 
(PID.TID 0000.0001)  EXF main CPP flags:
(PID.TID 0000.0001) 
(PID.TID 0000.0001) // USE_EXF_INTERPOLATION:          NOT defined
(PID.TID 0000.0001) // ALLOW_ATM_TEMP:                     defined
(PID.TID 0000.0001) // ALLOW_ATM_WIND (useAtmWind):        defined
(PID.TID 0000.0001) // ALLOW_DOWNWARD_RADIATION:           defined
(PID.TID 0000.0001) // ALLOW_BULKFORMULAE:                 defined
(PID.TID 0000.0001) 
(PID.TID 0000.0001)    Zonal wind forcing starts at                          0.
(PID.TID 0000.0001)    Zonal wind forcing period is                      10800.
(PID.TID 0000.0001)    Zonal wind forcing repeat-cycle is              1382400.
(PID.TID 0000.0001)    Zonal wind forcing is read from file:
(PID.TID 0000.0001)    >> Uwindfield_shifted_8000.bin <<
(PID.TID 0000.0001) 
(PID.TID 0000.0001)    Meridional wind forcing starts at                     0.
(PID.TID 0000.0001)    Meridional wind forcing period is                 10800.
(PID.TID 0000.0001)    Meridional wind forcing repeat-cycle is         1382400.
(PID.TID 0000.0001)    Meridional wind forcing is read from file:
(PID.TID 0000.0001)    >> Vwindfield_shifted_8000.bin <<
(PID.TID 0000.0001) 
(PID.TID 0000.0001) // ALLOW_READ_TURBFLUXES:          NOT defined
(PID.TID 0000.0001) // EXF_READ_EVAP:                  NOT defined
(PID.TID 0000.0001) // ALLOW_RUNOFF:                       defined
(PID.TID 0000.0001) // ALLOW_RUNOFTEMP:                NOT defined
(PID.TID 0000.0001) // ALLOW_SALTFLX:                      defined
(PID.TID 0000.0001) 
(PID.TID 0000.0001) // =======================================================
(PID.TID 0000.0001) // External forcing (EXF) climatology configuration :
(PID.TID 0000.0001) // =======================================================
(PID.TID 0000.0001) 
(PID.TID 0000.0001) // ALLOW_CLIMSST_RELAXATION:           defined
(PID.TID 0000.0001)    climsst relaxation is NOT used
(PID.TID 0000.0001) 
(PID.TID 0000.0001) // ALLOW_CLIMSSS_RELAXATION:           defined
(PID.TID 0000.0001)    climsss relaxation is NOT used
(PID.TID 0000.0001) 
(PID.TID 0000.0001) // =======================================================
(PID.TID 0000.0001) // External forcing (EXF) configuration  >>> END <<<
(PID.TID 0000.0001) // =======================================================
(PID.TID 0000.0001) 
(PID.TID 0000.0001) // =======================================================
(PID.TID 0000.0001) // Seaice configuration (SEAICE_PARM01) >>> START <<<
(PID.TID 0000.0001) // =======================================================
(PID.TID 0000.0001) 
(PID.TID 0000.0001)    Seaice time stepping configuration   > START <
(PID.TID 0000.0001)    ----------------------------------------------
(PID.TID 0000.0001) SEAICE_deltaTtherm= /* thermodynamic timestep */
(PID.TID 0000.0001)                 2.500000000000000E+00
(PID.TID 0000.0001)     ;
(PID.TID 0000.0001) SEAICE_deltaTdyn  = /* dynamic timestep */
(PID.TID 0000.0001)                 2.500000000000000E+00
(PID.TID 0000.0001)     ;
(PID.TID 0000.0001) SEAICE_deltaTevp  = /* EVP timestep */
(PID.TID 0000.0001)                 1.234567000000000E+05
(PID.TID 0000.0001)     ;
(PID.TID 0000.0001) SEAICEuseBDF2  = /* use backw. differencing for mom. eq. */
(PID.TID 0000.0001)                   F
(PID.TID 0000.0001)     ;
(PID.TID 0000.0001) SEAICEupdateOceanStress= /* update Ocean surf. stress */
(PID.TID 0000.0001)                   T
(PID.TID 0000.0001)     ;
(PID.TID 0000.0001) SEAICErestoreUnderIce  = /* restore T and S under ice */
(PID.TID 0000.0001)                   F
(PID.TID 0000.0001)     ;
(PID.TID 0000.0001) 
(PID.TID 0000.0001)    Seaice dynamics configuration   > START <
(PID.TID 0000.0001)    ------------------------------------------
(PID.TID 0000.0001) SEAICEuseDYNAMICS = /* use dynamics */
(PID.TID 0000.0001)                   T
(PID.TID 0000.0001)     ;
(PID.TID 0000.0001) model grid type   = /* type of sea ice model grid */
(PID.TID 0000.0001)               'C-GRID'
(PID.TID 0000.0001)     ;
(PID.TID 0000.0001) SEAICEuseStrImpCpl = /* use strongly implicit coupling */
(PID.TID 0000.0001)                   F
(PID.TID 0000.0001)     ;
(PID.TID 0000.0001) SEAICEusePicardAsPrecon = /* Picard as preconditioner */
(PID.TID 0000.0001)                   F
(PID.TID 0000.0001)     ;
(PID.TID 0000.0001) SEAICEuseLSR      = /* use default Picard-LSR solver */
(PID.TID 0000.0001)                   F
(PID.TID 0000.0001)     ;
(PID.TID 0000.0001) SEAICEuseKrylov   = /* use Picard-Krylov solver */
(PID.TID 0000.0001)                   T
(PID.TID 0000.0001)     ;
(PID.TID 0000.0001) SEAICEuseEVP      = /* use EVP solver rather than LSR */
(PID.TID 0000.0001)                   F
(PID.TID 0000.0001)     ;
(PID.TID 0000.0001) SEAICEuseJFNK     = /* use JFNK solver */
(PID.TID 0000.0001)                   F
(PID.TID 0000.0001)     ;
(PID.TID 0000.0001) SEAICEuseMEB      = /* use MEB rheology */
(PID.TID 0000.0001)                   T
(PID.TID 0000.0001)     ;
(PID.TID 0000.0001) SEAICENoisyIceStrength= /* Noise on Sea ice strength*/
(PID.TID 0000.0001)                   F
(PID.TID 0000.0001)     ;
(PID.TID 0000.0001) OCEAN_drag        = /* air-ocean drag coefficient */
(PID.TID 0000.0001)                 1.000000000000000E-03
(PID.TID 0000.0001)     ;
(PID.TID 0000.0001) SEAICE_drag       = /* air-ice drag coefficient */
(PID.TID 0000.0001)                 1.200000000000000E-03
(PID.TID 0000.0001)     ;
(PID.TID 0000.0001) SEAICE_drag_south      = /* Southern Ocean SEAICE_drag */
(PID.TID 0000.0001)                 1.200000000000000E-03
(PID.TID 0000.0001)     ;
(PID.TID 0000.0001) SEAICE_waterDrag  = /* water-ice drag (no units) */
(PID.TID 0000.0001)                 5.500000000000000E-03
(PID.TID 0000.0001)     ;
(PID.TID 0000.0001) SEAICE_waterDrag_south = /* Southern Ocean waterDrag (no units) */
(PID.TID 0000.0001)                 5.500000000000000E-03
(PID.TID 0000.0001)     ;
(PID.TID 0000.0001) SEAICEdWatMin = /* minimum linear water-ice drag (in m/s) */
(PID.TID 0000.0001)                 2.500000000000000E-01
(PID.TID 0000.0001)     ;
(PID.TID 0000.0001) SEAICEuseTilt     = /* include surface tilt in dyna. */
(PID.TID 0000.0001)                   T
(PID.TID 0000.0001)     ;
(PID.TID 0000.0001) SEAICEuseTEM      = /* use truncated ellipse rheology */
(PID.TID 0000.0001)                   F
(PID.TID 0000.0001)     ;
(PID.TID 0000.0001) SEAICE_strength   = /* undamaged elasticity modulus */
(PID.TID 0000.0001)                 5.000000000000000E+08
(PID.TID 0000.0001)     ;
(PID.TID 0000.0001) SEAICEpoissonRatio = /* sea ice Poisson ratio */
(PID.TID 0000.0001)                 3.000000119209290E-01
(PID.TID 0000.0001)     ;
(PID.TID 0000.0001) SEAICEviscosity = /* MEB apparent viscosity */
(PID.TID 0000.0001)                 5.000000000000000E+15
(PID.TID 0000.0001)     ;
(PID.TID 0000.0001) SEAICEcohesion = /* max. cohesion in pure shear */
(PID.TID 0000.0001)                 2.500000000000000E+02
(PID.TID 0000.0001)     ;
(PID.TID 0000.0001) SEAICEdamageParm = /* exponent alpha of damage*/
(PID.TID 0000.0001)                 4.000000000000000E+00
(PID.TID 0000.0001)     ;
(PID.TID 0000.0001) SEAICEdamageTime = /* damage time scale */
(PID.TID 0000.0001)                 8.000000000000000E+00
(PID.TID 0000.0001)     ;
(PID.TID 0000.0001) SEAICEdamageMin = /* stability parameter */
(PID.TID 0000.0001)                 1.000000000000000E-16
(PID.TID 0000.0001)     ;
(PID.TID 0000.0001) SEAICEintFrictCoeff = /* MEB interal friction coeff. */
(PID.TID 0000.0001)                 7.000000000000000E-01
(PID.TID 0000.0001)     ;
(PID.TID 0000.0001) SEAICEmohrCoulombSlope = /* slope of M.-C. criterion in stress invariants space */
(PID.TID 0000.0001)                 5.734623443633283E-01
(PID.TID 0000.0001)     ;
(PID.TID 0000.0001) SEAICEhealingTime = /* damage healing time scale */
(PID.TID 0000.0001)                 1.000000000000000E+05
(PID.TID 0000.0001)     ;
(PID.TID 0000.0001) SEAICE_cStar      = /* sea-ice strength parameter cStar */
(PID.TID 0000.0001)                 2.000000000000000E+01
(PID.TID 0000.0001)     ;
(PID.TID 0000.0001) SEAICEpressReplFac= /* press. replacement method factor */
(PID.TID 0000.0001)                 1.000000000000000E+00
(PID.TID 0000.0001)     ;
(PID.TID 0000.0001) SEAICE_tensilFac  = /* sea-ice tensile strength factor */
(PID.TID 0000.0001)                 0.000000000000000E+00
(PID.TID 0000.0001)     ;
(PID.TID 0000.0001) SEAICE_tensilDepth= /* crit. depth for tensile strength */
(PID.TID 0000.0001)                 0.000000000000000E+00
(PID.TID 0000.0001)     ;
(PID.TID 0000.0001) SEAICEpresH0   = /* sea-ice strength Heff threshold */
(PID.TID 0000.0001)                 1.000000000000000E+00
(PID.TID 0000.0001)     ;
(PID.TID 0000.0001) SEAICEpresPow0 = /* exponent for Heff<SEAICEpresH0 */
(PID.TID 0000.0001)                       1
(PID.TID 0000.0001)     ;
(PID.TID 0000.0001) SEAICEpresPow1 = /* exponent for Heff>SEAICEpresH0 */
(PID.TID 0000.0001)                       1
(PID.TID 0000.0001)     ;
(PID.TID 0000.0001) SEAICEetaZmethod = /* method computing eta at Z-point */
(PID.TID 0000.0001)                       3
(PID.TID 0000.0001)     ;
(PID.TID 0000.0001) SEAICE_zetaMaxFac = /* factor for upper viscosity bound */
(PID.TID 0000.0001)                 2.500000000000000E+08
(PID.TID 0000.0001)     ;
(PID.TID 0000.0001) SEAICE_zetaMin    = /* lower bound for viscosity */
(PID.TID 0000.0001)                 0.000000000000000E+00
(PID.TID 0000.0001)     ;
(PID.TID 0000.0001) SEAICE_eccen    = /* elliptical yield curve eccent */
(PID.TID 0000.0001)                 2.000000000000000E+00
(PID.TID 0000.0001)     ;
(PID.TID 0000.0001) SEAICEstressFactor    = /* wind stress scaling factor */
(PID.TID 0000.0001)                 1.000000000000000E+00
(PID.TID 0000.0001)     ;
(PID.TID 0000.0001) SEAICE_airTurnAngle    = /* air-ice turning angle */
(PID.TID 0000.0001)                 0.000000000000000E+00
(PID.TID 0000.0001)     ;
(PID.TID 0000.0001) SEAICE_waterTurnAngle  = /* ice-water turning angle */
(PID.TID 0000.0001)                 0.000000000000000E+00
(PID.TID 0000.0001)     ;
(PID.TID 0000.0001) SEAICEuseMetricTerms = /* use metric terms */
(PID.TID 0000.0001)                   T
(PID.TID 0000.0001)     ;
(PID.TID 0000.0001) SEAICE_no_slip    = /* no slip boundary conditions */
(PID.TID 0000.0001)                   T
(PID.TID 0000.0001)     ;
(PID.TID 0000.0001) SEAICE_2ndOrderBC = /* 2nd order no slip boundary conditions */
(PID.TID 0000.0001)                   F
(PID.TID 0000.0001)     ;
(PID.TID 0000.0001) SEAICE_clipVeloctities = /* impose max. vels. */
(PID.TID 0000.0001)                   F
(PID.TID 0000.0001)     ;
(PID.TID 0000.0001) useHB87stressCoupling  = /* altern. ice-ocean stress */
(PID.TID 0000.0001)                   F
(PID.TID 0000.0001)     ;
(PID.TID 0000.0001) SEAICEscaleSurfStress  = /* scale atm. and ocean-surface stress with AREA */
(PID.TID 0000.0001)                   T
(PID.TID 0000.0001)     ;
(PID.TID 0000.0001) SEAICE_maskRHS    = /* mask RHS of solver */
(PID.TID 0000.0001)                   F
(PID.TID 0000.0001)     ;
(PID.TID 0000.0001) SEAICEaddSnowMass = /* add snow mass to seaiceMassC/U/V */
(PID.TID 0000.0001)                   T
(PID.TID 0000.0001)     ;
(PID.TID 0000.0001) LSR_mixIniGuess = /* mix free-drift sol. into LSR initial Guess */
(PID.TID 0000.0001)                      -1
(PID.TID 0000.0001)     ;
(PID.TID 0000.0001) SEAICE_LSRrelaxU  = /* LSR solver: relaxation parameter */
(PID.TID 0000.0001)                 9.500000000000000E-01
(PID.TID 0000.0001)     ;
(PID.TID 0000.0001) SEAICE_LSRrelaxV  = /* LSR solver: relaxation parameter */
(PID.TID 0000.0001)                 9.500000000000000E-01
(PID.TID 0000.0001)     ;
(PID.TID 0000.0001) LSR_ERROR         = /* sets accuracy of LSR solver */
(PID.TID 0000.0001)                 1.000000000000000E-05
(PID.TID 0000.0001)     ;
(PID.TID 0000.0001) SOLV_NCHECK       = /* test interval for LSR solver */
(PID.TID 0000.0001)                       2
(PID.TID 0000.0001)     ;
(PID.TID 0000.0001) SEAICEuseMultiTileSolver = /* use full domain tri-diag solver */
(PID.TID 0000.0001)                   F
(PID.TID 0000.0001)     ;
(PID.TID 0000.0001) SEAICE_OLx = /* overlap for LSR/preconditioner */
(PID.TID 0000.0001)                       2
(PID.TID 0000.0001)     ;
(PID.TID 0000.0001) SEAICE_OLy = /* overlap for LSR/preconditioner */
(PID.TID 0000.0001)                       2
(PID.TID 0000.0001)     ;
(PID.TID 0000.0001) SEAICEnonLinIterMax = /* max. number of nonlinear solver steps */
(PID.TID 0000.0001)                     100
(PID.TID 0000.0001)     ;
(PID.TID 0000.0001) SEAICElinearIterMax = /* max. number of linear solver steps */
(PID.TID 0000.0001)                      50
(PID.TID 0000.0001)     ;
(PID.TID 0000.0001) SEAICEnonLinTol     = /* non-linear solver tolerance */
(PID.TID 0000.0001)                 1.000000000000000E-03
(PID.TID 0000.0001)     ;
(PID.TID 0000.0001) SEAICEpreconLinIter = /* number of linear preconditioner steps */
(PID.TID 0000.0001)                      10
(PID.TID 0000.0001)     ;
(PID.TID 0000.0001) SEAICEpreconNL_Iter = /* number of non-linear preconditioner steps */
(PID.TID 0000.0001)                       0
(PID.TID 0000.0001)     ;
(PID.TID 0000.0001) SEAICEuseIMEX  = /* IMEX scheme with JFNK-solver */
(PID.TID 0000.0001)                   T
(PID.TID 0000.0001)     ;
(PID.TID 0000.0001) 
(PID.TID 0000.0001)    Seaice advection diffusion config,   > START <
(PID.TID 0000.0001)    -----------------------------------------------
(PID.TID 0000.0001) SEAICEmomAdvection = /* advect sea ice momentum */
(PID.TID 0000.0001)                   F
(PID.TID 0000.0001)     ;
(PID.TID 0000.0001) SEAICEadvHeff = /* advect effective ice thickness */
(PID.TID 0000.0001)                   T
(PID.TID 0000.0001)     ;
(PID.TID 0000.0001) SEAICEadvArea = /* advect fractional ice area */
(PID.TID 0000.0001)                   T
(PID.TID 0000.0001)     ;
(PID.TID 0000.0001) SEAICEadvSnow = /* advect snow layer together with ice */
(PID.TID 0000.0001)                   T
(PID.TID 0000.0001)     ;
(PID.TID 0000.0001) SEAICEadvScheme   = /* advection scheme for ice */
(PID.TID 0000.0001)                      77
(PID.TID 0000.0001)     ;
(PID.TID 0000.0001) SEAICEadvSchArea   = /* advection scheme for area */
(PID.TID 0000.0001)                      77
(PID.TID 0000.0001)     ;
(PID.TID 0000.0001) SEAICEadvSchHeff   = /* advection scheme for thickness */
(PID.TID 0000.0001)                      77
(PID.TID 0000.0001)     ;
(PID.TID 0000.0001) SEAICEadvSchSnow   = /* advection scheme for snow */
(PID.TID 0000.0001)                      77
(PID.TID 0000.0001)     ;
(PID.TID 0000.0001) SEAICEdiffKhArea   = /* diffusivity (m^2/s) for area */
(PID.TID 0000.0001)                 0.000000000000000E+00
(PID.TID 0000.0001)     ;
(PID.TID 0000.0001) SEAICEdiffKhHeff   = /* diffusivity (m^2/s) for heff */
(PID.TID 0000.0001)                 0.000000000000000E+00
(PID.TID 0000.0001)     ;
(PID.TID 0000.0001) SEAICEdiffKhSnow   = /* diffusivity (m^2/s) for snow */
(PID.TID 0000.0001)                 0.000000000000000E+00
(PID.TID 0000.0001)     ;
(PID.TID 0000.0001) DIFF1             = /* parameter used in advect.F [m/s] */
(PID.TID 0000.0001)                 0.000000000000000E+00
(PID.TID 0000.0001)     ;
(PID.TID 0000.0001) 
(PID.TID 0000.0001)    Seaice thermodynamics configuration   > START <
(PID.TID 0000.0001)    -----------------------------------------------
(PID.TID 0000.0001) SEAICE_rhoIce     = /* density of sea ice (kg/m3) */
(PID.TID 0000.0001)                 9.000000000000000E+02
(PID.TID 0000.0001)     ;
(PID.TID 0000.0001) SEAICE_rhoSnow    = /* density of snow (kg/m3) */
(PID.TID 0000.0001)                 3.300000000000000E+02
(PID.TID 0000.0001)     ;
(PID.TID 0000.0001) SEAICE_rhoAir     = /* density of air (kg/m3) */
(PID.TID 0000.0001)                 1.300000000000000E+00
(PID.TID 0000.0001)     ;
(PID.TID 0000.0001) usePW79thermodynamics  = /* default 0-layer TD */
(PID.TID 0000.0001)                   F
(PID.TID 0000.0001)     ;
(PID.TID 0000.0001)    pkg/seaice thermodynamics is OFF
(PID.TID 0000.0001) 
(PID.TID 0000.0001)    Seaice initialization and IO config.,   > START <
(PID.TID 0000.0001)    -------------------------------------------------
(PID.TID 0000.0001) SEAICE_initialHEFF= /* initial sea-ice thickness */
(PID.TID 0000.0001)                 0.000000000000000E+00
(PID.TID 0000.0001)     ;
(PID.TID 0000.0001) AreaFile = /* Initial ice concentration File */
(PID.TID 0000.0001)               'const_1.0_8000.bin'
(PID.TID 0000.0001)     ;
(PID.TID 0000.0001) HeffFile = /* Initial effective ice thickness File */
(PID.TID 0000.0001)               'thickness_aniso_8000.bin'
(PID.TID 0000.0001)     ;
(PID.TID 0000.0001) NoisFile = /* Noise field File */
(PID.TID 0000.0001)               ''
(PID.TID 0000.0001)     ;
(PID.TID 0000.0001) CohesFile = /* Initial sea ice cohesion File */
(PID.TID 0000.0001)               ''
(PID.TID 0000.0001)     ;
(PID.TID 0000.0001) HsnowFile = /* Initial snow thickness File */
(PID.TID 0000.0001)               'const_00_8000.bin'
(PID.TID 0000.0001)     ;
(PID.TID 0000.0001) uIceFile = /* Initial U-ice velocity File */
(PID.TID 0000.0001)               ''
(PID.TID 0000.0001)     ;
(PID.TID 0000.0001) vIceFile = /* Initial V-ice velocity File */
(PID.TID 0000.0001)               ''
(PID.TID 0000.0001)     ;
(PID.TID 0000.0001) SEAICEwriteState  = /* write sea ice state to file */
(PID.TID 0000.0001)                   T
(PID.TID 0000.0001)     ;
(PID.TID 0000.0001) SEAICE_monFreq  = /* monitor frequency */
(PID.TID 0000.0001)                 1.000000000000000E+00
(PID.TID 0000.0001)     ;
(PID.TID 0000.0001) SEAICE_dumpFreq   = /* dump frequency */
(PID.TID 0000.0001)                 0.000000000000000E+00
(PID.TID 0000.0001)     ;
(PID.TID 0000.0001) SEAICE_taveFreq   = /* time-averaging frequency */
(PID.TID 0000.0001)                 0.000000000000000E+00
(PID.TID 0000.0001)     ;
(PID.TID 0000.0001) SEAICE_mon_stdio  = /* write monitor to std-outp */
(PID.TID 0000.0001)                   T
(PID.TID 0000.0001)     ;
(PID.TID 0000.0001) SEAICE_dump_mdsio = /* write snap-shot   using MDSIO */
(PID.TID 0000.0001)                   T
(PID.TID 0000.0001)     ;
(PID.TID 0000.0001) SEAICE_tave_mdsio = /* write TimeAverage using MDSIO */
(PID.TID 0000.0001)                   T
(PID.TID 0000.0001)     ;
(PID.TID 0000.0001) SEAICE_mon_mnc    = /* write monitor to netcdf file */
(PID.TID 0000.0001)                   F
(PID.TID 0000.0001)     ;
(PID.TID 0000.0001) SEAICE_dump_mnc   = /* write snap-shot   using MNC */
(PID.TID 0000.0001)                   F
(PID.TID 0000.0001)     ;
(PID.TID 0000.0001) SEAICE_tave_mnc   = /* write TimeAverage using MNC */
(PID.TID 0000.0001)                   F
(PID.TID 0000.0001)     ;
(PID.TID 0000.0001) 
(PID.TID 0000.0001)    Seaice regularization numbers,   > START <
(PID.TID 0000.0001)    -----------------------------------------------
(PID.TID 0000.0001) SEAICE_deltaMin   = /* reduce singularities in Delta */
(PID.TID 0000.0001)                 2.000000000000000E-09
(PID.TID 0000.0001)     ;
(PID.TID 0000.0001) SEAICE_EPS        = /* small number */
(PID.TID 0000.0001)                 1.000000000000000E-10
(PID.TID 0000.0001)     ;
(PID.TID 0000.0001) SEAICE_EPS_SQ     = /* small number squared */
(PID.TID 0000.0001)                 1.000000000000000E-20
(PID.TID 0000.0001)     ;
(PID.TID 0000.0001) SEAICE_area_reg   = /* reduce derivative singularities */
(PID.TID 0000.0001)                 1.000000000000000E-05
(PID.TID 0000.0001)     ;
(PID.TID 0000.0001) SEAICE_hice_reg   = /* reduce derivative singularities */
(PID.TID 0000.0001)                 5.000000000000000E-02
(PID.TID 0000.0001)     ;
(PID.TID 0000.0001) SEAICE_area_floor = /* reduce derivative singularities */
(PID.TID 0000.0001)                 1.000000000000000E-05
(PID.TID 0000.0001)     ;
(PID.TID 0000.0001) 
(PID.TID 0000.0001) // =======================================================
(PID.TID 0000.0001) // Seaice configuration (SEAICE_PARM01) >>> END <<<
(PID.TID 0000.0001) // =======================================================
(PID.TID 0000.0001) 
(PID.TID 0000.0001) ------------------------------------------------------------
(PID.TID 0000.0001) DIAGNOSTICS_SET_LEVELS: done
(PID.TID 0000.0001)  Total Nb of available Diagnostics: ndiagt=   233
(PID.TID 0000.0001)  write list of available Diagnostics to file: available_diagnostics.log
(PID.TID 0000.0001) SETDIAG: Allocate  1 x  1 Levels for Diagnostic #   163 SIuice
(PID.TID 0000.0001) SETDIAG: Allocate  1 x  1 Levels for Diagnostic #   164 SIvice
(PID.TID 0000.0001) SETDIAG: Allocate  1 x  1 Levels for Diagnostic #   149 SIheff
(PID.TID 0000.0001) SETDIAG: Allocate  1 x  1 Levels for Diagnostic #   146 SIarea
(PID.TID 0000.0001) SETDIAG: Allocate  1 x  1 Levels for Diagnostic #   228 SIshear
(PID.TID 0000.0001) SETDIAG: Allocate  1 x  1 Levels for Diagnostic #   233 SIcohes
(PID.TID 0000.0001) SETDIAG: Allocate  1 x  1 Levels for Diagnostic #   221 SIsig1
(PID.TID 0000.0001) SETDIAG: Allocate  1 x  1 Levels for Diagnostic #   222 SIsig2
(PID.TID 0000.0001) SETDIAG: Allocate  1 x  1 Levels for Diagnostic #   231 SIdamage
(PID.TID 0000.0001) SETDIAG: Allocate  1 x  1 Levels for Diagnostic #   165 SItaux
(PID.TID 0000.0001) SETDIAG: Allocate  1 x  1 Levels for Diagnostic #   166 SItauy
(PID.TID 0000.0001) SETDIAG: Allocate  1 x  1 Levels for Diagnostic #   133 EXFuwind
(PID.TID 0000.0001) SETDIAG: Allocate  1 x  1 Levels for Diagnostic #   134 EXFvwind
(PID.TID 0000.0001)   space allocated for all diagnostics:      13 levels
(PID.TID 0000.0001)   set mate pointer for diag #   163  SIuice   , Parms: UU      M1 , mate:   164
(PID.TID 0000.0001)   set mate pointer for diag #   164  SIvice   , Parms: VV      M1 , mate:   163
(PID.TID 0000.0001)   set mate pointer for diag #   165  SItaux   , Parms: UU      U1 , mate:   166
(PID.TID 0000.0001)   set mate pointer for diag #   166  SItauy   , Parms: VV      U1 , mate:   165
(PID.TID 0000.0001) DIAGNOSTICS_SET_POINTERS: Set levels for Outp.Stream: snapshot
(PID.TID 0000.0001)  Levels:       1.
(PID.TID 0000.0001) DIAGNOSTICS_SET_POINTERS: done
(PID.TID 0000.0001) ------------------------------------------------------------
(PID.TID 0000.0001) DIAGSTATS_SET_REGIONS: define no region
(PID.TID 0000.0001) ------------------------------------------------------------
(PID.TID 0000.0001)   space allocated for all stats-diags:       0 levels
(PID.TID 0000.0001) DIAGSTATS_SET_POINTERS: done
(PID.TID 0000.0001) ------------------------------------------------------------
(PID.TID 0000.0001) %MON fCori_max                    =   1.5116000000000E-04
(PID.TID 0000.0001) %MON fCori_min                    =   1.4604000000000E-04
(PID.TID 0000.0001) %MON fCori_mean                   =   1.4860000000000E-04
(PID.TID 0000.0001) %MON fCori_sd                     =   1.5009330431435E-06
(PID.TID 0000.0001) %MON fCoriG_max                   =   1.5112000000000E-04
(PID.TID 0000.0001) %MON fCoriG_min                   =   1.4600000000000E-04
(PID.TID 0000.0001) %MON fCoriG_mean                  =   1.4856000000000E-04
(PID.TID 0000.0001) %MON fCoriG_sd                    =   1.5009330431435E-06
(PID.TID 0000.0001) %MON fCoriCos_max                 =   0.0000000000000E+00
(PID.TID 0000.0001) %MON fCoriCos_min                 =   0.0000000000000E+00
(PID.TID 0000.0001) %MON fCoriCos_mean                =   0.0000000000000E+00
(PID.TID 0000.0001) %MON fCoriCos_sd                  =   0.0000000000000E+00
(PID.TID 0000.0001) INI_CG2D: CG2D normalisation factor =  1.0000000000000001E-01
(PID.TID 0000.0001) 
(PID.TID 0000.0001) // =======================================================
(PID.TID 0000.0001) // Model configuration
(PID.TID 0000.0001) // =======================================================
(PID.TID 0000.0001) //
(PID.TID 0000.0001) // "Physical" paramters ( PARM01 in namelist )
(PID.TID 0000.0001) //
(PID.TID 0000.0001) buoyancyRelation = /* Type of relation to get Buoyancy */
(PID.TID 0000.0001)               'OCEANIC'
(PID.TID 0000.0001)     ;
(PID.TID 0000.0001) fluidIsAir   =  /* fluid major constituent is Air */
(PID.TID 0000.0001)                   F
(PID.TID 0000.0001)     ;
(PID.TID 0000.0001) fluidIsWater =  /* fluid major constituent is Water */
(PID.TID 0000.0001)                   T
(PID.TID 0000.0001)     ;
(PID.TID 0000.0001) usingPCoords =  /* use p (or p*) vertical coordinate */
(PID.TID 0000.0001)                   F
(PID.TID 0000.0001)     ;
(PID.TID 0000.0001) usingZCoords =  /* use z (or z*) vertical coordinate */
(PID.TID 0000.0001)                   T
(PID.TID 0000.0001)     ;
(PID.TID 0000.0001) tRef =   /* Reference temperature profile ( oC or K ) */
(PID.TID 0000.0001)                -1.620000000000000E+00       /* K =  1 */
(PID.TID 0000.0001)     ;
(PID.TID 0000.0001) sRef =   /* Reference salinity profile ( g/kg ) */
(PID.TID 0000.0001)                 3.000000000000000E+01       /* K =  1 */
(PID.TID 0000.0001)     ;
(PID.TID 0000.0001) useStrainTensionVisc= /* Use StrainTension Form of Viscous Operator */
(PID.TID 0000.0001)                   F
(PID.TID 0000.0001)     ;
(PID.TID 0000.0001) useVariableVisc = /* Use variable horizontal viscosity */
(PID.TID 0000.0001)                   F
(PID.TID 0000.0001)     ;
(PID.TID 0000.0001) useHarmonicVisc = /* Use harmonic horizontal viscosity */
(PID.TID 0000.0001)                   F
(PID.TID 0000.0001)     ;
(PID.TID 0000.0001) useBiharmonicVisc= /* Use biharmonic horiz.  viscosity */
(PID.TID 0000.0001)                   F
(PID.TID 0000.0001)     ;
(PID.TID 0000.0001) useSmag3D = /* Use isotropic 3-D Smagorinsky viscosity */
(PID.TID 0000.0001)                   F
(PID.TID 0000.0001)     ;
(PID.TID 0000.0001) viscAh  =   /* Lateral harmonic viscosity ( m^2/s ) */
(PID.TID 0000.0001)                 0.000000000000000E+00
(PID.TID 0000.0001)     ;
(PID.TID 0000.0001) viscA4  =   /* Lateral biharmonic viscosity ( m^4/s ) */
(PID.TID 0000.0001)                 0.000000000000000E+00
(PID.TID 0000.0001)     ;
(PID.TID 0000.0001) no_slip_sides =  /* Viscous BCs: No-slip sides */
(PID.TID 0000.0001)                   T
(PID.TID 0000.0001)     ;
(PID.TID 0000.0001) sideDragFactor = /* side-drag scaling factor (non-dim) */
(PID.TID 0000.0001)                 2.000000000000000E+00
(PID.TID 0000.0001)     ;
(PID.TID 0000.0001) viscArNr = /* vertical profile of vertical viscosity ( m^2/s )*/
(PID.TID 0000.0001)                 0.000000000000000E+00       /* K =  1 */
(PID.TID 0000.0001)     ;
(PID.TID 0000.0001) no_slip_bottom =  /* Viscous BCs: No-slip bottom */
(PID.TID 0000.0001)                   T
(PID.TID 0000.0001)     ;
(PID.TID 0000.0001) bottomVisc_pCell = /* Partial-cell in bottom Visc. BC */
(PID.TID 0000.0001)                   F
(PID.TID 0000.0001)     ;
(PID.TID 0000.0001) bottomDragLinear = /* linear bottom-drag coefficient ( m/s ) */
(PID.TID 0000.0001)                 0.000000000000000E+00
(PID.TID 0000.0001)     ;
(PID.TID 0000.0001) bottomDragQuadratic = /* quadratic bottom-drag coefficient (-) */
(PID.TID 0000.0001)                 0.000000000000000E+00
(PID.TID 0000.0001)     ;
(PID.TID 0000.0001) selectBotDragQuadr = /* select quadratic bottom drag options */
(PID.TID 0000.0001)                      -1
(PID.TID 0000.0001)     ;
(PID.TID 0000.0001) diffKhT =   /* Laplacian diffusion of heat laterally ( m^2/s ) */
(PID.TID 0000.0001)                 0.000000000000000E+00
(PID.TID 0000.0001)     ;
(PID.TID 0000.0001) diffK4T =   /* Biharmonic diffusion of heat laterally ( m^4/s ) */
(PID.TID 0000.0001)                 0.000000000000000E+00
(PID.TID 0000.0001)     ;
(PID.TID 0000.0001) diffKhS =   /* Laplacian diffusion of salt laterally ( m^2/s ) */
(PID.TID 0000.0001)                 0.000000000000000E+00
(PID.TID 0000.0001)     ;
(PID.TID 0000.0001) diffK4S =   /* Biharmonic diffusion of salt laterally ( m^4/s ) */
(PID.TID 0000.0001)                 0.000000000000000E+00
(PID.TID 0000.0001)     ;
(PID.TID 0000.0001) diffKrNrT = /* vertical profile of vertical diffusion of Temp ( m^2/s )*/
(PID.TID 0000.0001)                 0.000000000000000E+00       /* K =  1 */
(PID.TID 0000.0001)     ;
(PID.TID 0000.0001) diffKrNrS = /* vertical profile of vertical diffusion of Salt ( m^2/s )*/
(PID.TID 0000.0001)                 0.000000000000000E+00       /* K =  1 */
(PID.TID 0000.0001)     ;
(PID.TID 0000.0001) diffKrBL79surf = /* Surface diffusion for Bryan and Lewis 79 ( m^2/s ) */
(PID.TID 0000.0001)                 0.000000000000000E+00
(PID.TID 0000.0001)     ;
(PID.TID 0000.0001) diffKrBL79deep = /* Deep diffusion for Bryan and Lewis 1979 ( m^2/s ) */
(PID.TID 0000.0001)                 0.000000000000000E+00
(PID.TID 0000.0001)     ;
(PID.TID 0000.0001) diffKrBL79scl = /* Depth scale for Bryan and Lewis 1979 ( m ) */
(PID.TID 0000.0001)                 2.000000000000000E+02
(PID.TID 0000.0001)     ;
(PID.TID 0000.0001) diffKrBL79Ho = /* Turning depth for Bryan and Lewis 1979 ( m ) */
(PID.TID 0000.0001)                -2.000000000000000E+03
(PID.TID 0000.0001)     ;
(PID.TID 0000.0001) ivdc_kappa = /* Implicit Vertical Diffusivity for Convection ( m^2/s) */
(PID.TID 0000.0001)                 0.000000000000000E+00
(PID.TID 0000.0001)     ;
(PID.TID 0000.0001) hMixCriteria=  /* Criteria for mixed-layer diagnostic */
(PID.TID 0000.0001)                -8.000000000000000E-01
(PID.TID 0000.0001)     ;
(PID.TID 0000.0001) dRhoSmall =  /* Parameter for mixed-layer diagnostic */
(PID.TID 0000.0001)                 1.000000000000000E-06
(PID.TID 0000.0001)     ;
(PID.TID 0000.0001) hMixSmooth=  /* Smoothing parameter for mixed-layer diagnostic */
(PID.TID 0000.0001)                 0.000000000000000E+00
(PID.TID 0000.0001)     ;
(PID.TID 0000.0001) eosType =  /* Type of Equation of State */
(PID.TID 0000.0001)               'LINEAR'
(PID.TID 0000.0001)     ;
(PID.TID 0000.0001) tAlpha = /* Linear EOS thermal expansion coefficient ( 1/oC ) */
(PID.TID 0000.0001)                 2.000000000000000E-04
(PID.TID 0000.0001)     ;
(PID.TID 0000.0001) sBeta  = /* Linear EOS haline contraction coefficient ( 1/(g/kg) ) */
(PID.TID 0000.0001)                 7.400000000000000E-04
(PID.TID 0000.0001)     ;
(PID.TID 0000.0001) rhoNil    = /* Reference density for Linear EOS ( kg/m^3 ) */
(PID.TID 0000.0001)                 1.026000000000000E+03
(PID.TID 0000.0001)     ;
(PID.TID 0000.0001) selectP_inEOS_Zc = /* select pressure to use in EOS (0,1,2,3) */
(PID.TID 0000.0001)                       0
(PID.TID 0000.0001)     0= -g*rhoConst*z ; 1= pRef (from tRef,sRef); 2= Hyd P ; 3= Hyd+NH P
(PID.TID 0000.0001)     ;
(PID.TID 0000.0001) surf_pRef = /* Surface reference pressure ( Pa ) */
(PID.TID 0000.0001)                 1.013250000000000E+05
(PID.TID 0000.0001)     ;
(PID.TID 0000.0001) HeatCapacity_Cp =  /* Specific heat capacity ( J/kg/K ) */
(PID.TID 0000.0001)                 3.986000000000000E+03
(PID.TID 0000.0001)     ;
(PID.TID 0000.0001) celsius2K = /* 0 degree Celsius converted to Kelvin ( K ) */
(PID.TID 0000.0001)                 2.731500000000000E+02
(PID.TID 0000.0001)     ;
(PID.TID 0000.0001) rhoConst  = /* Reference density (Boussinesq)  ( kg/m^3 ) */
(PID.TID 0000.0001)                 1.026000000000000E+03
(PID.TID 0000.0001)     ;
(PID.TID 0000.0001) rhoFacC = /* normalized Reference density @ cell-Center (-) */
(PID.TID 0000.0001)                 1.000000000000000E+00       /* K =  1 */
(PID.TID 0000.0001)     ;
(PID.TID 0000.0001) rhoFacF = /* normalized Reference density @ W-Interface (-) */
(PID.TID 0000.0001)     2 @  1.000000000000000E+00              /* K =  1:  2 */
(PID.TID 0000.0001)     ;
(PID.TID 0000.0001) rhoConstFresh = /* Fresh-water reference density ( kg/m^3 ) */
(PID.TID 0000.0001)                 1.000000000000000E+03
(PID.TID 0000.0001)     ;
(PID.TID 0000.0001) gravity =   /* Gravitational acceleration ( m/s^2 ) */
(PID.TID 0000.0001)                 9.810000000000000E+00
(PID.TID 0000.0001)     ;
(PID.TID 0000.0001) gBaro =   /* Barotropic gravity ( m/s^2 ) */
(PID.TID 0000.0001)                 9.810000000000000E+00
(PID.TID 0000.0001)     ;
(PID.TID 0000.0001) gravFacC = /* gravity factor (vs surf.) @ cell-Center (-) */
(PID.TID 0000.0001)                 1.000000000000000E+00       /* K =  1 */
(PID.TID 0000.0001)     ;
(PID.TID 0000.0001) gravFacF = /* gravity factor (vs surf.) @ W-Interface (-) */
(PID.TID 0000.0001)     2 @  1.000000000000000E+00              /* K =  1:  2 */
(PID.TID 0000.0001)     ;
(PID.TID 0000.0001) rotationPeriod =   /* Rotation Period ( s ) */
(PID.TID 0000.0001)                 8.616400000000000E+04
(PID.TID 0000.0001)     ;
(PID.TID 0000.0001) omega =   /* Angular velocity ( rad/s ) */
(PID.TID 0000.0001)                 7.292123516990375E-05
(PID.TID 0000.0001)     ;
(PID.TID 0000.0001) f0 =   /* Reference coriolis parameter ( 1/s ) */
(PID.TID 0000.0001)                 1.460000000000000E-04
(PID.TID 0000.0001)     ;
(PID.TID 0000.0001) beta =   /* Beta ( 1/(m.s) ) */
(PID.TID 0000.0001)                 9.999999999999999E-12
(PID.TID 0000.0001)     ;
(PID.TID 0000.0001) fPrime =   /* Second coriolis parameter ( 1/s ) */
(PID.TID 0000.0001)                 0.000000000000000E+00
(PID.TID 0000.0001)     ;
(PID.TID 0000.0001) rigidLid =   /* Rigid lid on/off flag */
(PID.TID 0000.0001)                   F
(PID.TID 0000.0001)     ;
(PID.TID 0000.0001) implicitFreeSurface =   /* Implicit free surface on/off flag */
(PID.TID 0000.0001)                   T
(PID.TID 0000.0001)     ;
(PID.TID 0000.0001) freeSurfFac =   /* Implicit free surface factor */
(PID.TID 0000.0001)                 1.000000000000000E+00
(PID.TID 0000.0001)     ;
(PID.TID 0000.0001) implicSurfPress =  /* Surface Pressure implicit factor (0-1) */
(PID.TID 0000.0001)                 1.000000000000000E+00
(PID.TID 0000.0001)     ;
(PID.TID 0000.0001) implicDiv2DFlow =  /* Barot. Flow Div. implicit factor (0-1) */
(PID.TID 0000.0001)                 1.000000000000000E+00
(PID.TID 0000.0001)     ;
(PID.TID 0000.0001) uniformLin_PhiSurf = /* use uniform Bo_surf on/off flag */
(PID.TID 0000.0001)                   T
(PID.TID 0000.0001)     ;
(PID.TID 0000.0001) uniformFreeSurfLev = /* free-surface level-index is uniform */
(PID.TID 0000.0001)                   T
(PID.TID 0000.0001)     ;
(PID.TID 0000.0001) sIceLoadFac =  /* scale factor for sIceLoad (0-1) */
(PID.TID 0000.0001)                 1.000000000000000E+00
(PID.TID 0000.0001)     ;
(PID.TID 0000.0001) hFacMin =   /* minimum partial cell factor (hFac) */
(PID.TID 0000.0001)                 1.000000000000000E+00
(PID.TID 0000.0001)     ;
(PID.TID 0000.0001) hFacMinDr = /* minimum partial cell thickness ( m) */
(PID.TID 0000.0001)                 0.000000000000000E+00
(PID.TID 0000.0001)     ;
(PID.TID 0000.0001) exactConserv =  /* Exact Volume Conservation on/off flag */
(PID.TID 0000.0001)                   F
(PID.TID 0000.0001)     ;
(PID.TID 0000.0001) linFSConserveTr = /* Tracer correction for Lin Free Surface on/off flag */
(PID.TID 0000.0001)                   F
(PID.TID 0000.0001)     ;
(PID.TID 0000.0001) nonlinFreeSurf = /* Non-linear Free Surf. options (-1,0,1,2,3)*/
(PID.TID 0000.0001)                       0
(PID.TID 0000.0001)      -1,0= Off ; 1,2,3= On, 2=+rescale gU,gV, 3=+update cg2d solv.
(PID.TID 0000.0001)     ;
(PID.TID 0000.0001) hFacInf =   /* lower threshold for hFac (nonlinFreeSurf only)*/
(PID.TID 0000.0001)                 2.000000000000000E-01
(PID.TID 0000.0001)     ;
(PID.TID 0000.0001) hFacSup =   /* upper threshold for hFac (nonlinFreeSurf only)*/
(PID.TID 0000.0001)                 2.000000000000000E+00
(PID.TID 0000.0001)     ;
(PID.TID 0000.0001) select_rStar = /* r* Vertical coord. options (=0 r coord.; >0 uses r*)*/
(PID.TID 0000.0001)                       0
(PID.TID 0000.0001)     ;
(PID.TID 0000.0001) useRealFreshWaterFlux = /* Real Fresh Water Flux on/off flag*/
(PID.TID 0000.0001)                   F
(PID.TID 0000.0001)     ;
(PID.TID 0000.0001) temp_EvPrRn = /* Temp. of Evap/Prec/R (UNSET=use local T)(oC)*/
(PID.TID 0000.0001)                 1.234567000000000E+05
(PID.TID 0000.0001)     ;
(PID.TID 0000.0001) salt_EvPrRn = /* Salin. of Evap/Prec/R (UNSET=use local S)(g/kg)*/
(PID.TID 0000.0001)                 0.000000000000000E+00
(PID.TID 0000.0001)     ;
(PID.TID 0000.0001) selectAddFluid = /* option for mass source/sink of fluid (=0: off) */
(PID.TID 0000.0001)                       0
(PID.TID 0000.0001)     ;
(PID.TID 0000.0001) temp_addMass = /* Temp. of addMass array (UNSET=use local T)(oC)*/
(PID.TID 0000.0001)                 1.234567000000000E+05
(PID.TID 0000.0001)     ;
(PID.TID 0000.0001) salt_addMass = /* Salin. of addMass array (UNSET=use local S)(g/kg)*/
(PID.TID 0000.0001)                 0.000000000000000E+00
(PID.TID 0000.0001)     ;
(PID.TID 0000.0001) convertFW2Salt = /* convert F.W. Flux to Salt Flux (-1=use local S)(g/kg)*/
(PID.TID 0000.0001)                 3.500000000000000E+01
(PID.TID 0000.0001)     ;
(PID.TID 0000.0001) use3Dsolver = /* use 3-D pressure solver on/off flag */
(PID.TID 0000.0001)                   F
(PID.TID 0000.0001)     ;
(PID.TID 0000.0001) nonHydrostatic =  /* Non-Hydrostatic on/off flag */
(PID.TID 0000.0001)                   F
(PID.TID 0000.0001)     ;
(PID.TID 0000.0001) nh_Am2 = /* Non-Hydrostatic terms scaling factor */
(PID.TID 0000.0001)                 1.000000000000000E+00
(PID.TID 0000.0001)     ;
(PID.TID 0000.0001) implicitNHPress = /* Non-Hyd Pressure implicit factor (0-1)*/
(PID.TID 0000.0001)                 1.000000000000000E+00
(PID.TID 0000.0001)     ;
(PID.TID 0000.0001) selectNHfreeSurf = /* Non-Hyd (free-)Surface option */
(PID.TID 0000.0001)                       0
(PID.TID 0000.0001)     ;
(PID.TID 0000.0001) quasiHydrostatic = /* Quasi-Hydrostatic on/off flag */
(PID.TID 0000.0001)                   F
(PID.TID 0000.0001)     ;
(PID.TID 0000.0001) calc_wVelocity = /* vertical velocity calculation on/off flag */
(PID.TID 0000.0001)                   F
(PID.TID 0000.0001)     ;
(PID.TID 0000.0001) momStepping =  /* Momentum equation on/off flag */
(PID.TID 0000.0001)                   F
(PID.TID 0000.0001)     ;
(PID.TID 0000.0001) vectorInvariantMomentum= /* Vector-Invariant Momentum on/off */
(PID.TID 0000.0001)                   F
(PID.TID 0000.0001)     ;
(PID.TID 0000.0001) momAdvection =  /* Momentum advection on/off flag */
(PID.TID 0000.0001)                   F
(PID.TID 0000.0001)     ;
(PID.TID 0000.0001) momViscosity =  /* Momentum viscosity on/off flag */
(PID.TID 0000.0001)                   F
(PID.TID 0000.0001)     ;
(PID.TID 0000.0001) momImplVertAdv= /* Momentum implicit vert. advection on/off*/
(PID.TID 0000.0001)                   F
(PID.TID 0000.0001)     ;
(PID.TID 0000.0001) implicitViscosity = /* Implicit viscosity on/off flag */
(PID.TID 0000.0001)                   F
(PID.TID 0000.0001)     ;
(PID.TID 0000.0001) selectImplicitDrag= /* Implicit bot Drag options (0,1,2)*/
(PID.TID 0000.0001)                       0
(PID.TID 0000.0001)     0= Expl. ; 1= Impl. on provis. Vel ; 2= Fully Impl (with surf.P)
(PID.TID 0000.0001)     ;
(PID.TID 0000.0001) metricTerms =  /* metric-Terms on/off flag */
(PID.TID 0000.0001)                   F
(PID.TID 0000.0001)     ;
(PID.TID 0000.0001) useNHMTerms = /* Non-Hydrostatic Metric-Terms on/off */
(PID.TID 0000.0001)                   F
(PID.TID 0000.0001)     ;
(PID.TID 0000.0001) selectCoriMap = /* Coriolis Map options (0,1,2,3)*/
(PID.TID 0000.0001)                       1
(PID.TID 0000.0001)     0= f-Plane ; 1= Beta-Plane ; 2= Spherical ; 3= read from file
(PID.TID 0000.0001)     ;
(PID.TID 0000.0001) use3dCoriolis = /* 3-D Coriolis on/off flag */
(PID.TID 0000.0001)                   F
(PID.TID 0000.0001)     ;
(PID.TID 0000.0001) useCoriolis =  /* Coriolis on/off flag */
(PID.TID 0000.0001)                   F
(PID.TID 0000.0001)     ;
(PID.TID 0000.0001) useCDscheme =  /* CD scheme on/off flag */
(PID.TID 0000.0001)                   F
(PID.TID 0000.0001)     ;
(PID.TID 0000.0001) selectCoriScheme= /* Scheme selector for Coriolis-Term */
(PID.TID 0000.0001)                       0
(PID.TID 0000.0001)    = 0 : original discretization (simple averaging, no hFac)
(PID.TID 0000.0001)    = 1 : Wet-point averaging (Jamar & Ozer 1986)
(PID.TID 0000.0001)    = 2 : energy conserving scheme (no hFac weight)
(PID.TID 0000.0001)    = 3 : energy conserving scheme using Wet-point averaging
(PID.TID 0000.0001)     ;
(PID.TID 0000.0001) momForcing =  /* Momentum forcing on/off flag */
(PID.TID 0000.0001)                   F
(PID.TID 0000.0001)     ;
(PID.TID 0000.0001) momPressureForcing =  /* Momentum pressure term on/off flag */
(PID.TID 0000.0001)                   F
(PID.TID 0000.0001)     ;
(PID.TID 0000.0001) implicitIntGravWave= /* Implicit Internal Gravity Wave flag */
(PID.TID 0000.0001)                   F
(PID.TID 0000.0001)     ;
(PID.TID 0000.0001) staggerTimeStep =    /* Stagger time stepping on/off flag */
(PID.TID 0000.0001)                   F
(PID.TID 0000.0001)     ;
(PID.TID 0000.0001) doResetHFactors = /* reset thickness factors @ each time-step */
(PID.TID 0000.0001)                   F
(PID.TID 0000.0001)     ;
(PID.TID 0000.0001) multiDimAdvection =  /* enable/disable Multi-Dim Advection */
(PID.TID 0000.0001)                   T
(PID.TID 0000.0001)     ;
(PID.TID 0000.0001) useMultiDimAdvec =   /* Multi-Dim Advection is/is-not used */
(PID.TID 0000.0001)                   F
(PID.TID 0000.0001)     ;
(PID.TID 0000.0001) implicitDiffusion = /* Implicit Diffusion on/off flag */
(PID.TID 0000.0001)                   F
(PID.TID 0000.0001)     ;
(PID.TID 0000.0001) tempStepping =  /* Temperature equation on/off flag */
(PID.TID 0000.0001)                   F
(PID.TID 0000.0001)     ;
(PID.TID 0000.0001) tempAdvection = /* Temperature advection on/off flag */
(PID.TID 0000.0001)                   F
(PID.TID 0000.0001)     ;
(PID.TID 0000.0001) tempImplVertAdv = /* Temp. implicit vert. advection on/off */
(PID.TID 0000.0001)                   F
(PID.TID 0000.0001)     ;
(PID.TID 0000.0001) tempForcing  =  /* Temperature forcing on/off flag */
(PID.TID 0000.0001)                   F
(PID.TID 0000.0001)     ;
(PID.TID 0000.0001) doThetaClimRelax = /* apply SST relaxation on/off flag */
(PID.TID 0000.0001)                   F
(PID.TID 0000.0001)     ;
(PID.TID 0000.0001) tempIsActiveTr = /* Temp. is a dynamically Active Tracer */
(PID.TID 0000.0001)                   F
(PID.TID 0000.0001)     ;
(PID.TID 0000.0001) saltStepping =  /* Salinity equation on/off flag */
(PID.TID 0000.0001)                   F
(PID.TID 0000.0001)     ;
(PID.TID 0000.0001) saltAdvection = /* Salinity advection on/off flag */
(PID.TID 0000.0001)                   F
(PID.TID 0000.0001)     ;
(PID.TID 0000.0001) saltImplVertAdv = /* Sali. implicit vert. advection on/off */
(PID.TID 0000.0001)                   F
(PID.TID 0000.0001)     ;
(PID.TID 0000.0001) saltForcing  =  /* Salinity forcing on/off flag */
(PID.TID 0000.0001)                   F
(PID.TID 0000.0001)     ;
(PID.TID 0000.0001) doSaltClimRelax = /* apply SSS relaxation on/off flag */
(PID.TID 0000.0001)                   F
(PID.TID 0000.0001)     ;
(PID.TID 0000.0001) saltIsActiveTr = /* Salt  is a dynamically Active Tracer */
(PID.TID 0000.0001)                   F
(PID.TID 0000.0001)     ;
(PID.TID 0000.0001)  readBinaryPrec = /* Precision used for reading binary files */
(PID.TID 0000.0001)                      64
(PID.TID 0000.0001)     ;
(PID.TID 0000.0001) writeBinaryPrec = /* Precision used for writing binary files */
(PID.TID 0000.0001)                      32
(PID.TID 0000.0001)     ;
(PID.TID 0000.0001)  rwSuffixType =   /* select format of mds file suffix */
(PID.TID 0000.0001)                       0
(PID.TID 0000.0001)    = 0 : myIter (I10.10) ;   = 1 : 100*myTime (100th sec) ;
(PID.TID 0000.0001)    = 2 : myTime (seconds);   = 3 : myTime/360 (10th of hr);
(PID.TID 0000.0001)    = 4 : myTime/3600 (hours)
(PID.TID 0000.0001)     ;
(PID.TID 0000.0001)  globalFiles = /* write "global" (=not per tile) files */
(PID.TID 0000.0001)                   F
(PID.TID 0000.0001)     ;
(PID.TID 0000.0001)  useSingleCpuIO = /* only master MPI process does I/O */
(PID.TID 0000.0001)                   T
(PID.TID 0000.0001)     ;
(PID.TID 0000.0001)  useSingleCpuInput = /* only master process reads input */
(PID.TID 0000.0001)                   T
(PID.TID 0000.0001)     ;
(PID.TID 0000.0001) /* debLev[*]  : level of debug & auxiliary message printing */
(PID.TID 0000.0001) debLevZero =  0 ; /* level of disabled aux. msg printing */
(PID.TID 0000.0001)    debLevA =  1 ; /* level of minimum  aux. msg printing */
(PID.TID 0000.0001)    debLevB =  2 ; /* level of low aux. print (report read-file opening)*/
(PID.TID 0000.0001)    debLevC =  3 ; /* level of moderate debug prt (most pkgs debug msg) */
(PID.TID 0000.0001)    debLevD =  4 ; /* level of enhanced debug prt (add DEBUG_STATS prt) */
(PID.TID 0000.0001)    debLevE =  5 ; /* level of extensive debug printing */
(PID.TID 0000.0001) debugLevel =  /* select debug printing level */
(PID.TID 0000.0001)                       2
(PID.TID 0000.0001)     ;
(PID.TID 0000.0001)  plotLevel =  /* select PLOT_FIELD printing level */
(PID.TID 0000.0001)                       2
(PID.TID 0000.0001)     ;
(PID.TID 0000.0001) //
(PID.TID 0000.0001) // Elliptic solver(s) paramters ( PARM02 in namelist )
(PID.TID 0000.0001) //
(PID.TID 0000.0001) cg2dMaxIters =   /* Upper limit on 2d con. grad iterations  */
(PID.TID 0000.0001)                     500
(PID.TID 0000.0001)     ;
(PID.TID 0000.0001) cg2dMinItersNSA =   /* Minimum number of iterations of 2d con. grad solver  */
(PID.TID 0000.0001)                       0
(PID.TID 0000.0001)     ;
(PID.TID 0000.0001) cg2dUseMinResSol= /* use cg2d last-iter(=0) / min-resid.(=1) solution */
(PID.TID 0000.0001)                       0
(PID.TID 0000.0001)     ;
(PID.TID 0000.0001) cg2dTargetResidual =   /* 2d con. grad target residual  */
(PID.TID 0000.0001)                 1.000000000000000E-12
(PID.TID 0000.0001)     ;
(PID.TID 0000.0001) cg2dTargetResWunit =   /* CG2d target residual [W units] */
(PID.TID 0000.0001)                -1.000000000000000E+00
(PID.TID 0000.0001)     ;
(PID.TID 0000.0001) cg2dPreCondFreq =   /* Freq. for updating cg2d preconditioner */
(PID.TID 0000.0001)                       1
(PID.TID 0000.0001)     ;
(PID.TID 0000.0001) useSRCGSolver =  /* use single reduction CG solver(s) */
(PID.TID 0000.0001)                   F
(PID.TID 0000.0001)     ;
(PID.TID 0000.0001) useNSACGSolver =  /* use not-self-adjoint CG solver */
(PID.TID 0000.0001)                   F
(PID.TID 0000.0001)     ;
(PID.TID 0000.0001) printResidualFreq = /* Freq. for printing CG residual */
(PID.TID 0000.0001)                       0
(PID.TID 0000.0001)     ;
(PID.TID 0000.0001) //
(PID.TID 0000.0001) // Time stepping paramters ( PARM03 in namelist )
(PID.TID 0000.0001) //
(PID.TID 0000.0001) deltaTMom =   /* Momentum equation timestep ( s ) */
(PID.TID 0000.0001)                 2.500000000000000E+00
(PID.TID 0000.0001)     ;
(PID.TID 0000.0001) deltaTFreeSurf = /* FreeSurface equation timestep ( s ) */
(PID.TID 0000.0001)                 2.500000000000000E+00
(PID.TID 0000.0001)     ;
(PID.TID 0000.0001) dTtracerLev =  /* Tracer equation timestep ( s ) */
(PID.TID 0000.0001)                 2.500000000000000E+00       /* K =  1 */
(PID.TID 0000.0001)     ;
(PID.TID 0000.0001) deltaTClock  =   /* Model clock timestep ( s ) */
(PID.TID 0000.0001)                 2.500000000000000E+00
(PID.TID 0000.0001)     ;
(PID.TID 0000.0001) cAdjFreq =   /* Convective adjustment interval ( s ) */
(PID.TID 0000.0001)                 0.000000000000000E+00
(PID.TID 0000.0001)     ;
(PID.TID 0000.0001) momForcingOutAB = /* =1: take Momentum Forcing out of Adams-Bash. stepping */
(PID.TID 0000.0001)                       1
(PID.TID 0000.0001)     ;
(PID.TID 0000.0001) tracForcingOutAB = /* =1: take T,S,pTr Forcing out of Adams-Bash. stepping */
(PID.TID 0000.0001)                       1
(PID.TID 0000.0001)     ;
(PID.TID 0000.0001) momDissip_In_AB = /* put Dissipation Tendency in Adams-Bash. stepping */
(PID.TID 0000.0001)                   T
(PID.TID 0000.0001)     ;
(PID.TID 0000.0001) doAB_onGtGs = /* apply AB on Tendencies (rather than on T,S)*/
(PID.TID 0000.0001)                   T
(PID.TID 0000.0001)     ;
(PID.TID 0000.0001) abEps =   /* Adams-Bashforth-2 stabilizing weight */
(PID.TID 0000.0001)                 1.000000000000000E-01
(PID.TID 0000.0001)     ;
(PID.TID 0000.0001) applyExchUV_early = /* Apply EXCH to U,V earlier in time-step */
(PID.TID 0000.0001)                   F
(PID.TID 0000.0001)     ;
(PID.TID 0000.0001) pickupStrictlyMatch= /* stop if pickup do not strictly match */
(PID.TID 0000.0001)                   T
(PID.TID 0000.0001)     ;
(PID.TID 0000.0001) nIter0   =   /* Run starting timestep number */
(PID.TID 0000.0001)                       0
(PID.TID 0000.0001)     ;
(PID.TID 0000.0001) nTimeSteps = /* Number of timesteps */
(PID.TID 0000.0001)                      20
(PID.TID 0000.0001)     ;
(PID.TID 0000.0001) nEndIter =   /* Run ending timestep number */
(PID.TID 0000.0001)                      20
(PID.TID 0000.0001)     ;
(PID.TID 0000.0001) baseTime =   /* Model base time ( s ) */
(PID.TID 0000.0001)                 0.000000000000000E+00
(PID.TID 0000.0001)     ;
(PID.TID 0000.0001) startTime =  /* Run start time ( s ) */
(PID.TID 0000.0001)                 0.000000000000000E+00
(PID.TID 0000.0001)     ;
(PID.TID 0000.0001) endTime  =   /* Integration ending time ( s ) */
(PID.TID 0000.0001)                 5.000000000000000E+01
(PID.TID 0000.0001)     ;
(PID.TID 0000.0001) pChkPtFreq = /* Permanent restart/pickup file interval ( s ) */
(PID.TID 0000.0001)                 0.000000000000000E+00
(PID.TID 0000.0001)     ;
(PID.TID 0000.0001) chkPtFreq  = /* Rolling restart/pickup file interval ( s ) */
(PID.TID 0000.0001)                 0.000000000000000E+00
(PID.TID 0000.0001)     ;
(PID.TID 0000.0001) pickup_write_mdsio =   /* Model IO flag. */
(PID.TID 0000.0001)                   T
(PID.TID 0000.0001)     ;
(PID.TID 0000.0001) pickup_read_mdsio =   /* Model IO flag. */
(PID.TID 0000.0001)                   T
(PID.TID 0000.0001)     ;
(PID.TID 0000.0001) pickup_write_mnc =   /* Model IO flag. */
(PID.TID 0000.0001)                   F
(PID.TID 0000.0001)     ;
(PID.TID 0000.0001) pickup_read_mnc =   /* Model IO flag. */
(PID.TID 0000.0001)                   F
(PID.TID 0000.0001)     ;
(PID.TID 0000.0001) writePickupAtEnd =   /* Model IO flag. */
(PID.TID 0000.0001)                   F
(PID.TID 0000.0001)     ;
(PID.TID 0000.0001) dumpFreq =   /* Model state write out interval ( s ). */
(PID.TID 0000.0001)                 0.000000000000000E+00
(PID.TID 0000.0001)     ;
(PID.TID 0000.0001) dumpInitAndLast= /* write out Initial & Last iter. model state */
(PID.TID 0000.0001)                   T
(PID.TID 0000.0001)     ;
(PID.TID 0000.0001) snapshot_mdsio =   /* Model IO flag. */
(PID.TID 0000.0001)                   T
(PID.TID 0000.0001)     ;
(PID.TID 0000.0001) snapshot_mnc =   /* Model IO flag. */
(PID.TID 0000.0001)                   F
(PID.TID 0000.0001)     ;
(PID.TID 0000.0001) monitorFreq =   /* Monitor output interval ( s ). */
(PID.TID 0000.0001)                 2.500000000000000E+00
(PID.TID 0000.0001)     ;
(PID.TID 0000.0001) monitorSelect = /* select group of variables to monitor */
(PID.TID 0000.0001)                       2
(PID.TID 0000.0001)     ;
(PID.TID 0000.0001) monitor_stdio =   /* Model IO flag. */
(PID.TID 0000.0001)                   T
(PID.TID 0000.0001)     ;
(PID.TID 0000.0001) monitor_mnc =   /* Model IO flag. */
(PID.TID 0000.0001)                   F
(PID.TID 0000.0001)     ;
(PID.TID 0000.0001) externForcingPeriod =   /* forcing period (s) */
(PID.TID 0000.0001)                 0.000000000000000E+00
(PID.TID 0000.0001)     ;
(PID.TID 0000.0001) externForcingCycle =   /* period of the cyle (s). */
(PID.TID 0000.0001)                 0.000000000000000E+00
(PID.TID 0000.0001)     ;
(PID.TID 0000.0001) tauThetaClimRelax =   /* relaxation time scale (s) */
(PID.TID 0000.0001)                 0.000000000000000E+00
(PID.TID 0000.0001)     ;
(PID.TID 0000.0001) tauSaltClimRelax =   /* relaxation time scale (s) */
(PID.TID 0000.0001)                 0.000000000000000E+00
(PID.TID 0000.0001)     ;
(PID.TID 0000.0001) latBandClimRelax =   /* max. Lat. where relaxation */
(PID.TID 0000.0001)                 1.560000000000000E+06
(PID.TID 0000.0001)     ;
(PID.TID 0000.0001) //
(PID.TID 0000.0001) // Gridding paramters ( PARM04 in namelist )
(PID.TID 0000.0001) //
(PID.TID 0000.0001) usingCartesianGrid = /* Cartesian coordinates flag ( True/False ) */
(PID.TID 0000.0001)                   T
(PID.TID 0000.0001)     ;
(PID.TID 0000.0001) usingCylindricalGrid = /* Cylindrical coordinates flag ( True/False ) */
(PID.TID 0000.0001)                   F
(PID.TID 0000.0001)     ;
(PID.TID 0000.0001) usingSphericalPolarGrid = /* Spherical coordinates flag ( True/False ) */
(PID.TID 0000.0001)                   F
(PID.TID 0000.0001)     ;
(PID.TID 0000.0001) usingCurvilinearGrid = /* Curvilinear coordinates flag ( True/False ) */
(PID.TID 0000.0001)                   F
(PID.TID 0000.0001)     ;
(PID.TID 0000.0001) useMin4hFacEdges = /* set hFacW,S as minimum of adjacent hFacC factor */
(PID.TID 0000.0001)                   F
(PID.TID 0000.0001)     ;
(PID.TID 0000.0001) interViscAr_pCell = /* account for partial-cell in interior vert. viscosity */
(PID.TID 0000.0001)                   F
(PID.TID 0000.0001)     ;
(PID.TID 0000.0001) interDiffKr_pCell = /* account for partial-cell in interior vert. diffusion */
(PID.TID 0000.0001)                   F
(PID.TID 0000.0001)     ;
(PID.TID 0000.0001) pCellMix_select = /* option to enhance mixing near surface & bottom */
(PID.TID 0000.0001)                       0
(PID.TID 0000.0001)     ;
(PID.TID 0000.0001) selectSigmaCoord = /* Hybrid-Sigma Vert. Coordinate option */
(PID.TID 0000.0001)                       0
(PID.TID 0000.0001)     ;
(PID.TID 0000.0001) rSigmaBnd = /* r/sigma transition ( units of r ==  m ) */
(PID.TID 0000.0001)                 1.234567000000000E+05
(PID.TID 0000.0001)     ;
(PID.TID 0000.0001) rkSign =   /* index orientation relative to vertical coordinate */
(PID.TID 0000.0001)                -1.000000000000000E+00
(PID.TID 0000.0001)     ;
(PID.TID 0000.0001) gravitySign = /* gravity orientation relative to vertical coordinate */
(PID.TID 0000.0001)                -1.000000000000000E+00
(PID.TID 0000.0001)     ;
(PID.TID 0000.0001) seaLev_Z =  /* reference height of sea-level [m] */
(PID.TID 0000.0001)                 0.000000000000000E+00
(PID.TID 0000.0001)     ;
(PID.TID 0000.0001) top_Pres =  /* reference pressure at the top [Pa] */
(PID.TID 0000.0001)                 0.000000000000000E+00
(PID.TID 0000.0001)     ;
(PID.TID 0000.0001) mass2rUnit = /* convert mass per unit area [kg/m2] to r-units [m] */
(PID.TID 0000.0001)                 9.746588693957114E-04
(PID.TID 0000.0001)     ;
(PID.TID 0000.0001) rUnit2mass = /* convert r-units [m] to mass per unit area [kg/m2] */
(PID.TID 0000.0001)                 1.026000000000000E+03
(PID.TID 0000.0001)     ;
(PID.TID 0000.0001) drC =   /* C spacing ( units of r ) */
(PID.TID 0000.0001)     2 @  5.000000000000000E+00              /* K =  1:  2 */
(PID.TID 0000.0001)     ;
(PID.TID 0000.0001) drF =   /* W spacing ( units of r ) */
(PID.TID 0000.0001)                 1.000000000000000E+01       /* K =  1 */
(PID.TID 0000.0001)     ;
(PID.TID 0000.0001) delX = /* U spacing ( m - cartesian, degrees - spherical ) */
(PID.TID 0000.0001)    65 @  8.000000000000000E+03              /* I =  1: 65 */
(PID.TID 0000.0001)     ;
(PID.TID 0000.0001) delY = /* V spacing ( m - cartesian, degrees - spherical ) */
(PID.TID 0000.0001)    65 @  8.000000000000000E+03              /* J =  1: 65 */
(PID.TID 0000.0001)     ;
(PID.TID 0000.0001) xgOrigin = /* X-axis origin of West  edge (cartesian: m, lat-lon: deg) */
(PID.TID 0000.0001)                 0.000000000000000E+00
(PID.TID 0000.0001)     ;
(PID.TID 0000.0001) ygOrigin = /* Y-axis origin of South edge (cartesian: m, lat-lon: deg) */
(PID.TID 0000.0001)                 0.000000000000000E+00
(PID.TID 0000.0001)     ;
(PID.TID 0000.0001) rSphere =  /* Radius ( ignored - cartesian, m - spherical ) */
(PID.TID 0000.0001)                 6.370000000000000E+06
(PID.TID 0000.0001)     ;
(PID.TID 0000.0001) deepAtmosphere = /* Deep/Shallow Atmosphere flag (True/False) */
(PID.TID 0000.0001)                   F
(PID.TID 0000.0001)     ;
(PID.TID 0000.0001) xC =  /* xC(:,1,:,1) : P-point X coord ( deg. or m if cartesian) */
(PID.TID 0000.0001)                 4.000000000000000E+03,      /* I =  1 */
(PID.TID 0000.0001)                 1.200000000000000E+04,      /* I =  2 */
(PID.TID 0000.0001)                 2.000000000000000E+04,      /* I =  3 */
(PID.TID 0000.0001)                 2.800000000000000E+04,      /* I =  4 */
(PID.TID 0000.0001)                 3.600000000000000E+04,      /* I =  5 */
(PID.TID 0000.0001)                 4.400000000000000E+04,      /* I =  6 */
(PID.TID 0000.0001)                 5.200000000000000E+04,      /* I =  7 */
(PID.TID 0000.0001)                 6.000000000000000E+04,      /* I =  8 */
(PID.TID 0000.0001)                 6.800000000000000E+04,      /* I =  9 */
(PID.TID 0000.0001)                 7.600000000000000E+04,      /* I = 10 */
(PID.TID 0000.0001)                 8.400000000000000E+04,      /* I = 11 */
(PID.TID 0000.0001)                 9.200000000000000E+04,      /* I = 12 */
(PID.TID 0000.0001)                 1.000000000000000E+05,      /* I = 13 */
(PID.TID 0000.0001)                 1.080000000000000E+05,      /* I = 14 */
(PID.TID 0000.0001)                 1.160000000000000E+05,      /* I = 15 */
(PID.TID 0000.0001)                 1.240000000000000E+05,      /* I = 16 */
(PID.TID 0000.0001)                 1.320000000000000E+05,      /* I = 17 */
(PID.TID 0000.0001)                 1.400000000000000E+05,      /* I = 18 */
(PID.TID 0000.0001)                 1.480000000000000E+05,      /* I = 19 */
(PID.TID 0000.0001)                 1.560000000000000E+05,      /* I = 20 */
(PID.TID 0000.0001)                 1.640000000000000E+05,      /* I = 21 */
(PID.TID 0000.0001)                 1.720000000000000E+05,      /* I = 22 */
(PID.TID 0000.0001)                 1.800000000000000E+05,      /* I = 23 */
(PID.TID 0000.0001)                 1.880000000000000E+05,      /* I = 24 */
(PID.TID 0000.0001)                 1.960000000000000E+05,      /* I = 25 */
(PID.TID 0000.0001)                 2.040000000000000E+05,      /* I = 26 */
(PID.TID 0000.0001)                 2.120000000000000E+05,      /* I = 27 */
(PID.TID 0000.0001)                 2.200000000000000E+05,      /* I = 28 */
(PID.TID 0000.0001)                 2.280000000000000E+05,      /* I = 29 */
(PID.TID 0000.0001)                 2.360000000000000E+05,      /* I = 30 */
(PID.TID 0000.0001)                 2.440000000000000E+05,      /* I = 31 */
(PID.TID 0000.0001)                 2.520000000000000E+05,      /* I = 32 */
(PID.TID 0000.0001)                 2.600000000000000E+05,      /* I = 33 */
(PID.TID 0000.0001)                 2.680000000000000E+05,      /* I = 34 */
(PID.TID 0000.0001)                 2.760000000000000E+05,      /* I = 35 */
(PID.TID 0000.0001)                 2.840000000000000E+05,      /* I = 36 */
(PID.TID 0000.0001)                 2.920000000000000E+05,      /* I = 37 */
(PID.TID 0000.0001)                 3.000000000000000E+05,      /* I = 38 */
(PID.TID 0000.0001)                 3.080000000000000E+05,      /* I = 39 */
(PID.TID 0000.0001)                 3.160000000000000E+05,      /* I = 40 */
(PID.TID 0000.0001)                 3.240000000000000E+05,      /* I = 41 */
(PID.TID 0000.0001)                 3.320000000000000E+05,      /* I = 42 */
(PID.TID 0000.0001)                 3.400000000000000E+05,      /* I = 43 */
(PID.TID 0000.0001)                 3.480000000000000E+05,      /* I = 44 */
(PID.TID 0000.0001)                 3.560000000000000E+05,      /* I = 45 */
(PID.TID 0000.0001)                 3.640000000000000E+05,      /* I = 46 */
(PID.TID 0000.0001)                 3.720000000000000E+05,      /* I = 47 */
(PID.TID 0000.0001)                 3.800000000000000E+05,      /* I = 48 */
(PID.TID 0000.0001)                 3.880000000000000E+05,      /* I = 49 */
(PID.TID 0000.0001)                 3.960000000000000E+05,      /* I = 50 */
(PID.TID 0000.0001)                 4.040000000000000E+05,      /* I = 51 */
(PID.TID 0000.0001)                 4.120000000000000E+05,      /* I = 52 */
(PID.TID 0000.0001)                 4.200000000000000E+05,      /* I = 53 */
(PID.TID 0000.0001)                 4.280000000000000E+05,      /* I = 54 */
(PID.TID 0000.0001)                 4.360000000000000E+05,      /* I = 55 */
(PID.TID 0000.0001)                 4.440000000000000E+05,      /* I = 56 */
(PID.TID 0000.0001)                 4.520000000000000E+05,      /* I = 57 */
(PID.TID 0000.0001)                 4.600000000000000E+05,      /* I = 58 */
(PID.TID 0000.0001)                 4.680000000000000E+05,      /* I = 59 */
(PID.TID 0000.0001)                 4.760000000000000E+05,      /* I = 60 */
(PID.TID 0000.0001)                 4.840000000000000E+05,      /* I = 61 */
(PID.TID 0000.0001)                 4.920000000000000E+05,      /* I = 62 */
(PID.TID 0000.0001)                 5.000000000000000E+05,      /* I = 63 */
(PID.TID 0000.0001)                 5.080000000000000E+05,      /* I = 64 */
(PID.TID 0000.0001)                 5.160000000000000E+05       /* I = 65 */
(PID.TID 0000.0001)     ;
(PID.TID 0000.0001) yC =  /* yC(1,:,1,:) : P-point Y coord ( deg. or m if cartesian) */
(PID.TID 0000.0001)                 4.000000000000000E+03,      /* J =  1 */
(PID.TID 0000.0001)                 1.200000000000000E+04,      /* J =  2 */
(PID.TID 0000.0001)                 2.000000000000000E+04,      /* J =  3 */
(PID.TID 0000.0001)                 2.800000000000000E+04,      /* J =  4 */
(PID.TID 0000.0001)                 3.600000000000000E+04,      /* J =  5 */
(PID.TID 0000.0001)                 4.400000000000000E+04,      /* J =  6 */
(PID.TID 0000.0001)                 5.200000000000000E+04,      /* J =  7 */
(PID.TID 0000.0001)                 6.000000000000000E+04,      /* J =  8 */
(PID.TID 0000.0001)                 6.800000000000000E+04,      /* J =  9 */
(PID.TID 0000.0001)                 7.600000000000000E+04,      /* J = 10 */
(PID.TID 0000.0001)                 8.400000000000000E+04,      /* J = 11 */
(PID.TID 0000.0001)                 9.200000000000000E+04,      /* J = 12 */
(PID.TID 0000.0001)                 1.000000000000000E+05,      /* J = 13 */
(PID.TID 0000.0001)                 1.080000000000000E+05,      /* J = 14 */
(PID.TID 0000.0001)                 1.160000000000000E+05,      /* J = 15 */
(PID.TID 0000.0001)                 1.240000000000000E+05,      /* J = 16 */
(PID.TID 0000.0001)                 1.320000000000000E+05,      /* J = 17 */
(PID.TID 0000.0001)                 1.400000000000000E+05,      /* J = 18 */
(PID.TID 0000.0001)                 1.480000000000000E+05,      /* J = 19 */
(PID.TID 0000.0001)                 1.560000000000000E+05,      /* J = 20 */
(PID.TID 0000.0001)                 1.640000000000000E+05,      /* J = 21 */
(PID.TID 0000.0001)                 1.720000000000000E+05,      /* J = 22 */
(PID.TID 0000.0001)                 1.800000000000000E+05,      /* J = 23 */
(PID.TID 0000.0001)                 1.880000000000000E+05,      /* J = 24 */
(PID.TID 0000.0001)                 1.960000000000000E+05,      /* J = 25 */
(PID.TID 0000.0001)                 2.040000000000000E+05,      /* J = 26 */
(PID.TID 0000.0001)                 2.120000000000000E+05,      /* J = 27 */
(PID.TID 0000.0001)                 2.200000000000000E+05,      /* J = 28 */
(PID.TID 0000.0001)                 2.280000000000000E+05,      /* J = 29 */
(PID.TID 0000.0001)                 2.360000000000000E+05,      /* J = 30 */
(PID.TID 0000.0001)                 2.440000000000000E+05,      /* J = 31 */
(PID.TID 0000.0001)                 2.520000000000000E+05,      /* J = 32 */
(PID.TID 0000.0001)                 2.600000000000000E+05,      /* J = 33 */
(PID.TID 0000.0001)                 2.680000000000000E+05,      /* J = 34 */
(PID.TID 0000.0001)                 2.760000000000000E+05,      /* J = 35 */
(PID.TID 0000.0001)                 2.840000000000000E+05,      /* J = 36 */
(PID.TID 0000.0001)                 2.920000000000000E+05,      /* J = 37 */
(PID.TID 0000.0001)                 3.000000000000000E+05,      /* J = 38 */
(PID.TID 0000.0001)                 3.080000000000000E+05,      /* J = 39 */
(PID.TID 0000.0001)                 3.160000000000000E+05,      /* J = 40 */
(PID.TID 0000.0001)                 3.240000000000000E+05,      /* J = 41 */
(PID.TID 0000.0001)                 3.320000000000000E+05,      /* J = 42 */
(PID.TID 0000.0001)                 3.400000000000000E+05,      /* J = 43 */
(PID.TID 0000.0001)                 3.480000000000000E+05,      /* J = 44 */
(PID.TID 0000.0001)                 3.560000000000000E+05,      /* J = 45 */
(PID.TID 0000.0001)                 3.640000000000000E+05,      /* J = 46 */
(PID.TID 0000.0001)                 3.720000000000000E+05,      /* J = 47 */
(PID.TID 0000.0001)                 3.800000000000000E+05,      /* J = 48 */
(PID.TID 0000.0001)                 3.880000000000000E+05,      /* J = 49 */
(PID.TID 0000.0001)                 3.960000000000000E+05,      /* J = 50 */
(PID.TID 0000.0001)                 4.040000000000000E+05,      /* J = 51 */
(PID.TID 0000.0001)                 4.120000000000000E+05,      /* J = 52 */
(PID.TID 0000.0001)                 4.200000000000000E+05,      /* J = 53 */
(PID.TID 0000.0001)                 4.280000000000000E+05,      /* J = 54 */
(PID.TID 0000.0001)                 4.360000000000000E+05,      /* J = 55 */
(PID.TID 0000.0001)                 4.440000000000000E+05,      /* J = 56 */
(PID.TID 0000.0001)                 4.520000000000000E+05,      /* J = 57 */
(PID.TID 0000.0001)                 4.600000000000000E+05,      /* J = 58 */
(PID.TID 0000.0001)                 4.680000000000000E+05,      /* J = 59 */
(PID.TID 0000.0001)                 4.760000000000000E+05,      /* J = 60 */
(PID.TID 0000.0001)                 4.840000000000000E+05,      /* J = 61 */
(PID.TID 0000.0001)                 4.920000000000000E+05,      /* J = 62 */
(PID.TID 0000.0001)                 5.000000000000000E+05,      /* J = 63 */
(PID.TID 0000.0001)                 5.080000000000000E+05,      /* J = 64 */
(PID.TID 0000.0001)                 5.160000000000000E+05       /* J = 65 */
(PID.TID 0000.0001)     ;
(PID.TID 0000.0001) rcoord = /* P-point R coordinate (  units of r ) */
(PID.TID 0000.0001)                -5.000000000000000E+00       /* K =  1 */
(PID.TID 0000.0001)     ;
(PID.TID 0000.0001) rF =   /* W-Interf. R coordinate (  units of r ) */
(PID.TID 0000.0001)                 0.000000000000000E+00,      /* K =  1 */
(PID.TID 0000.0001)                -1.000000000000000E+01       /* K =  2 */
(PID.TID 0000.0001)     ;
(PID.TID 0000.0001) deepFacC = /* deep-model grid factor @ cell-Center (-) */
(PID.TID 0000.0001)                 1.000000000000000E+00       /* K =  1 */
(PID.TID 0000.0001)     ;
(PID.TID 0000.0001) deepFacF = /* deep-model grid factor @ W-Interface (-) */
(PID.TID 0000.0001)     2 @  1.000000000000000E+00              /* K =  1:  2 */
(PID.TID 0000.0001)     ;
(PID.TID 0000.0001) rVel2wUnit = /* convert units: rVel -> wSpeed (=1 if z-coord)*/
(PID.TID 0000.0001)     2 @  1.000000000000000E+00              /* K =  1:  2 */
(PID.TID 0000.0001)     ;
(PID.TID 0000.0001) wUnit2rVel = /* convert units: wSpeed -> rVel (=1 if z-coord)*/
(PID.TID 0000.0001)     2 @  1.000000000000000E+00              /* K =  1:  2 */
(PID.TID 0000.0001)     ;
(PID.TID 0000.0001) dBdrRef = /* Vertical grad. of reference buoyancy [(m/s/r)^2] */
(PID.TID 0000.0001)                 0.000000000000000E+00       /* K =  1 */
(PID.TID 0000.0001)     ;
(PID.TID 0000.0001) rotateGrid = /* use rotated grid ( True/False ) */
(PID.TID 0000.0001)                   F
(PID.TID 0000.0001)     ;
(PID.TID 0000.0001) phiEuler = /* Euler angle, rotation about original z-coordinate [rad] */
(PID.TID 0000.0001)                 0.000000000000000E+00
(PID.TID 0000.0001)     ;
(PID.TID 0000.0001) thetaEuler = /* Euler angle, rotation about new x-coordinate [rad] */
(PID.TID 0000.0001)                 0.000000000000000E+00
(PID.TID 0000.0001)     ;
(PID.TID 0000.0001) psiEuler = /* Euler angle, rotation about new z-coordinate [rad] */
(PID.TID 0000.0001)                 0.000000000000000E+00
(PID.TID 0000.0001)     ;
(PID.TID 0000.0001) dxF =  /* dxF(:,1,:,1) ( units: m ) */
(PID.TID 0000.0001)    65 @  8.000000000000000E+03              /* I =  1: 65 */
(PID.TID 0000.0001)     ;
(PID.TID 0000.0001) dxF =  /* dxF(1,:,1,:) ( units: m ) */
(PID.TID 0000.0001)    65 @  8.000000000000000E+03              /* J =  1: 65 */
(PID.TID 0000.0001)     ;
(PID.TID 0000.0001) dyF =  /* dyF(:,1,:,1) ( units: m ) */
(PID.TID 0000.0001)    65 @  8.000000000000000E+03              /* I =  1: 65 */
(PID.TID 0000.0001)     ;
(PID.TID 0000.0001) dyF =  /* dyF(1,:,1,:) ( units: m ) */
(PID.TID 0000.0001)    65 @  8.000000000000000E+03              /* J =  1: 65 */
(PID.TID 0000.0001)     ;
(PID.TID 0000.0001) dxG =  /* dxG(:,1,:,1) ( units: m ) */
(PID.TID 0000.0001)    65 @  8.000000000000000E+03              /* I =  1: 65 */
(PID.TID 0000.0001)     ;
(PID.TID 0000.0001) dxG =  /* dxG(1,:,1,:) ( units: m ) */
(PID.TID 0000.0001)    65 @  8.000000000000000E+03              /* J =  1: 65 */
(PID.TID 0000.0001)     ;
(PID.TID 0000.0001) dyG =  /* dyG(:,1,:,1) ( units: m ) */
(PID.TID 0000.0001)    65 @  8.000000000000000E+03              /* I =  1: 65 */
(PID.TID 0000.0001)     ;
(PID.TID 0000.0001) dyG =  /* dyG(1,:,1,:) ( units: m ) */
(PID.TID 0000.0001)    65 @  8.000000000000000E+03              /* J =  1: 65 */
(PID.TID 0000.0001)     ;
(PID.TID 0000.0001) dxC =  /* dxC(:,1,:,1) ( units: m ) */
(PID.TID 0000.0001)    65 @  8.000000000000000E+03              /* I =  1: 65 */
(PID.TID 0000.0001)     ;
(PID.TID 0000.0001) dxC =  /* dxC(1,:,1,:) ( units: m ) */
(PID.TID 0000.0001)    65 @  8.000000000000000E+03              /* J =  1: 65 */
(PID.TID 0000.0001)     ;
(PID.TID 0000.0001) dyC =  /* dyC(:,1,:,1) ( units: m ) */
(PID.TID 0000.0001)    65 @  8.000000000000000E+03              /* I =  1: 65 */
(PID.TID 0000.0001)     ;
(PID.TID 0000.0001) dyC =  /* dyC(1,:,1,:) ( units: m ) */
(PID.TID 0000.0001)    65 @  8.000000000000000E+03              /* J =  1: 65 */
(PID.TID 0000.0001)     ;
(PID.TID 0000.0001) dxV =  /* dxV(:,1,:,1) ( units: m ) */
(PID.TID 0000.0001)    65 @  8.000000000000000E+03              /* I =  1: 65 */
(PID.TID 0000.0001)     ;
(PID.TID 0000.0001) dxV =  /* dxV(1,:,1,:) ( units: m ) */
(PID.TID 0000.0001)    65 @  8.000000000000000E+03              /* J =  1: 65 */
(PID.TID 0000.0001)     ;
(PID.TID 0000.0001) dyU =  /* dyU(:,1,:,1) ( units: m ) */
(PID.TID 0000.0001)    65 @  8.000000000000000E+03              /* I =  1: 65 */
(PID.TID 0000.0001)     ;
(PID.TID 0000.0001) dyU =  /* dyU(1,:,1,:) ( units: m ) */
(PID.TID 0000.0001)    65 @  8.000000000000000E+03              /* J =  1: 65 */
(PID.TID 0000.0001)     ;
(PID.TID 0000.0001) rA  =  /* rA (:,1,:,1) ( units: m^2 ) */
(PID.TID 0000.0001)    65 @  6.400000000000000E+07              /* I =  1: 65 */
(PID.TID 0000.0001)     ;
(PID.TID 0000.0001) rA  =  /* rA (1,:,1,:) ( units: m^2 ) */
(PID.TID 0000.0001)    65 @  6.400000000000000E+07              /* J =  1: 65 */
(PID.TID 0000.0001)     ;
(PID.TID 0000.0001) rAw =  /* rAw(:,1,:,1) ( units: m^2 ) */
(PID.TID 0000.0001)    65 @  6.400000000000000E+07              /* I =  1: 65 */
(PID.TID 0000.0001)     ;
(PID.TID 0000.0001) rAw =  /* rAw(1,:,1,:) ( units: m^2 ) */
(PID.TID 0000.0001)    65 @  6.400000000000000E+07              /* J =  1: 65 */
(PID.TID 0000.0001)     ;
(PID.TID 0000.0001) rAs =  /* rAs(:,1,:,1) ( units: m^2 ) */
(PID.TID 0000.0001)    65 @  6.400000000000000E+07              /* I =  1: 65 */
(PID.TID 0000.0001)     ;
(PID.TID 0000.0001) rAs =  /* rAs(1,:,1,:) ( units: m^2 ) */
(PID.TID 0000.0001)    65 @  6.400000000000000E+07              /* J =  1: 65 */
(PID.TID 0000.0001)     ;
(PID.TID 0000.0001) globalArea = /* Integrated horizontal Area (m^2) */
(PID.TID 0000.0001)                 2.621440000000000E+11
(PID.TID 0000.0001)     ;
(PID.TID 0000.0001) // =======================================================
(PID.TID 0000.0001) // End of Model config. summary
(PID.TID 0000.0001) // =======================================================
(PID.TID 0000.0001) 
(PID.TID 0000.0001) == Packages configuration : Check & print summary ==
(PID.TID 0000.0001) 
(PID.TID 0000.0001) EXF_CHECK: #define ALLOW_EXF
(PID.TID 0000.0001) SEAICE_CHECK: #define ALLOW_SEAICE
(PID.TID 0000.0001) // =======================================================
(PID.TID 0000.0001) // Check Model config. (CONFIG_CHECK):
(PID.TID 0000.0001) // CONFIG_CHECK : Normal End
(PID.TID 0000.0001) // =======================================================
(PID.TID 0000.0001) 
(PID.TID 0000.0001)  MDS_READ_FIELD: opening global file: uVel_8000.bin
(PID.TID 0000.0001)  MDS_READ_FIELD: opening global file: vVel_8000.bin
(PID.TID 0000.0001) Start initial hydrostatic pressure computation
(PID.TID 0000.0001) Pressure is predetermined for buoyancyRelation OCEANIC
(PID.TID 0000.0001) 
(PID.TID 0000.0001)  write diagnostics summary to file ioUnit:      6
Iter.Nb:         0 ; Time(s):  0.0000000000000E+00
------------------------------------------------------------------------
2D/3D diagnostics: Number of lists:     1
------------------------------------------------------------------------
listId=    1 ; file name: snapshot
 nFlds, nActive,       freq     &     phase        , nLev               
   13  |   13  |         1.000000         0.000000 |   1
 levels:   1
 diag# | name   |   ipt  |  iMate | kLev|   count |   mate.C|           
   163 |SIuice  |      1 |      2 |   1 |       0 |       0 |
   164 |SIvice  |      2 |      1 |   1 |       0 |       0 |
   149 |SIheff  |      3 |      0 |   1 |       0 |
   146 |SIarea  |      4 |      0 |   1 |       0 |
   228 |SIshear |      5 |      0 |   1 |       0 |
   233 |SIcohes |      6 |      0 |   1 |       0 |
   221 |SIsig1  |      7 |      0 |   1 |       0 |
   222 |SIsig2  |      8 |      0 |   1 |       0 |
   231 |SIdamage|      9 |      0 |   1 |       0 |
   165 |SItaux  |     10 |     11 |   1 |       0 |       0 |
   166 |SItauy  |     11 |     10 |   1 |       0 |       0 |
   133 |EXFuwind|     12 |      0 |   1 |       0 |
   134 |EXFvwind|     13 |      0 |   1 |       0 |
------------------------------------------------------------------------
Global & Regional Statistics diagnostics: Number of lists:     0
------------------------------------------------------------------------
(PID.TID 0000.0001)  MDS_READ_FIELD: opening global file: thickness_aniso_8000.bin
(PID.TID 0000.0001)  MDS_READ_FIELD: opening global file: const_1.0_8000.bin
(PID.TID 0000.0001)  MDS_READ_FIELD: opening global file: const_00_8000.bin
(PID.TID 0000.0001) // =======================================================
(PID.TID 0000.0001) // Model current state
(PID.TID 0000.0001) // =======================================================
(PID.TID 0000.0001) 
(PID.TID 0000.0001) // =======================================================
(PID.TID 0000.0001) // Begin MONITOR dynamic field statistics
(PID.TID 0000.0001) // =======================================================
(PID.TID 0000.0001) %MON time_tsnumber                =                     0
(PID.TID 0000.0001) %MON time_secondsf                =   0.0000000000000E+00
(PID.TID 0000.0001) %MON dynstat_eta_max              =   0.0000000000000E+00
(PID.TID 0000.0001) %MON dynstat_eta_min              =   0.0000000000000E+00
(PID.TID 0000.0001) %MON dynstat_eta_mean             =   0.0000000000000E+00
(PID.TID 0000.0001) %MON dynstat_eta_sd               =   0.0000000000000E+00
(PID.TID 0000.0001) %MON dynstat_eta_del2             =   0.0000000000000E+00
(PID.TID 0000.0001) %MON dynstat_uvel_max             =   9.8437500000000E-03
(PID.TID 0000.0001) %MON dynstat_uvel_min             =  -9.8437500000000E-03
(PID.TID 0000.0001) %MON dynstat_uvel_mean            =   0.0000000000000E+00
(PID.TID 0000.0001) %MON dynstat_uvel_sd              =   5.7727978755972E-03
(PID.TID 0000.0001) %MON dynstat_uvel_del2            =   1.0089048364799E-20
(PID.TID 0000.0001) %MON dynstat_vvel_max             =   9.8437500000000E-03
(PID.TID 0000.0001) %MON dynstat_vvel_min             =  -9.8437500000000E-03
(PID.TID 0000.0001) %MON dynstat_vvel_mean            =   0.0000000000000E+00
(PID.TID 0000.0001) %MON dynstat_vvel_sd              =   5.7727978755972E-03
(PID.TID 0000.0001) %MON dynstat_vvel_del2            =   1.0089048364799E-20
(PID.TID 0000.0001) %MON dynstat_wvel_max             =   1.1914062500000E-05
(PID.TID 0000.0001) %MON dynstat_wvel_min             =  -1.1914062500000E-05
(PID.TID 0000.0001) %MON dynstat_wvel_mean            =   3.4694469519536E-25
(PID.TID 0000.0001) %MON dynstat_wvel_sd              =   1.7200872247780E-06
(PID.TID 0000.0001) %MON dynstat_wvel_del2            =   2.8187489626940E-08
(PID.TID 0000.0001) %MON dynstat_theta_max            =  -1.6200000000000E+00
(PID.TID 0000.0001) %MON dynstat_theta_min            =  -1.6200000000000E+00
(PID.TID 0000.0001) %MON dynstat_theta_mean           =  -1.6200000000000E+00
(PID.TID 0000.0001) %MON dynstat_theta_sd             =   0.0000000000000E+00
(PID.TID 0000.0001) %MON dynstat_theta_del2           =   0.0000000000000E+00
(PID.TID 0000.0001) %MON dynstat_salt_max             =   3.0000000000000E+01
(PID.TID 0000.0001) %MON dynstat_salt_min             =   3.0000000000000E+01
(PID.TID 0000.0001) %MON dynstat_salt_mean            =   3.0000000000000E+01
(PID.TID 0000.0001) %MON dynstat_salt_sd              =   0.0000000000000E+00
(PID.TID 0000.0001) %MON dynstat_salt_del2            =   0.0000000000000E+00
(PID.TID 0000.0001) %MON trAdv_CFL_u_max              =   0.0000000000000E+00
(PID.TID 0000.0001) %MON trAdv_CFL_v_max              =   0.0000000000000E+00
(PID.TID 0000.0001) %MON trAdv_CFL_w_max              =   0.0000000000000E+00
(PID.TID 0000.0001) %MON advcfl_uvel_max              =   3.0761718750000E-06
(PID.TID 0000.0001) %MON advcfl_vvel_max              =   3.0761718750000E-06
(PID.TID 0000.0001) %MON advcfl_wvel_max              =   5.9570312500000E-06
(PID.TID 0000.0001) %MON advcfl_W_hf_max              =   0.0000000000000E+00
(PID.TID 0000.0001) %MON pe_b_mean                    =   0.0000000000000E+00
(PID.TID 0000.0001) %MON ke_max                       =   9.0844726562500E-05
(PID.TID 0000.0001) %MON ke_mean                      =   3.2804489135742E-05
(PID.TID 0000.0001) %MON ke_vol                       =   2.6214400000000E+12
(PID.TID 0000.0001) %MON vort_r_min                   =  -7.8125000000000E-08
(PID.TID 0000.0001) %MON vort_r_max                   =   1.2304687500000E-06
(PID.TID 0000.0001) %MON vort_a_mean                  =   1.4856000000000E-04
(PID.TID 0000.0001) %MON vort_a_sd                    =   1.5312918562496E-06
(PID.TID 0000.0001) %MON vort_p_mean                  =   1.5552375000000E-04
(PID.TID 0000.0001) %MON vort_p_sd                    =   5.5921473110222E-05
(PID.TID 0000.0001) %MON surfExpan_theta_mean         =   0.0000000000000E+00
(PID.TID 0000.0001) %MON surfExpan_salt_mean          =   1.3877787807814E-23
(PID.TID 0000.0001) // =======================================================
(PID.TID 0000.0001) // End MONITOR dynamic field statistics
(PID.TID 0000.0001) // =======================================================
(PID.TID 0000.0001) // =======================================================
(PID.TID 0000.0001) // Begin MONITOR SEAICE statistics
(PID.TID 0000.0001) // =======================================================
(PID.TID 0000.0001) %MON seaice_tsnumber              =                     0
(PID.TID 0000.0001) %MON seaice_time_sec              =   0.0000000000000E+00
(PID.TID 0000.0001) %MON seaice_uice_max              =   0.0000000000000E+00
(PID.TID 0000.0001) %MON seaice_uice_min              =   0.0000000000000E+00
(PID.TID 0000.0001) %MON seaice_uice_mean             =   0.0000000000000E+00
(PID.TID 0000.0001) %MON seaice_uice_sd               =   0.0000000000000E+00
(PID.TID 0000.0001) %MON seaice_uice_del2             =   0.0000000000000E+00
(PID.TID 0000.0001) %MON seaice_vice_max              =   0.0000000000000E+00
(PID.TID 0000.0001) %MON seaice_vice_min              =   0.0000000000000E+00
(PID.TID 0000.0001) %MON seaice_vice_mean             =   0.0000000000000E+00
(PID.TID 0000.0001) %MON seaice_vice_sd               =   0.0000000000000E+00
(PID.TID 0000.0001) %MON seaice_vice_del2             =   0.0000000000000E+00
(PID.TID 0000.0001) %MON seaice_area_max              =   1.0000000000000E+00
(PID.TID 0000.0001) %MON seaice_area_min              =   1.0000000000000E+00
(PID.TID 0000.0001) %MON seaice_area_mean             =   1.0000000000000E+00
(PID.TID 0000.0001) %MON seaice_area_sd               =   0.0000000000000E+00
(PID.TID 0000.0001) %MON seaice_area_del2             =   0.0000000000000E+00
(PID.TID 0000.0001) %MON seaice_heff_max              =   3.0999867310186E-01
(PID.TID 0000.0001) %MON seaice_heff_min              =   2.9006056612617E-01
(PID.TID 0000.0001) %MON seaice_heff_mean             =   3.0067126525963E-01
(PID.TID 0000.0001) %MON seaice_heff_sd               =   5.0069223596193E-03
(PID.TID 0000.0001) %MON seaice_heff_del2             =   1.2853747988410E-05
(PID.TID 0000.0001) %MON seaice_hsnow_max             =   0.0000000000000E+00
(PID.TID 0000.0001) %MON seaice_hsnow_min             =   0.0000000000000E+00
(PID.TID 0000.0001) %MON seaice_hsnow_mean            =   0.0000000000000E+00
(PID.TID 0000.0001) %MON seaice_hsnow_sd              =   0.0000000000000E+00
(PID.TID 0000.0001) %MON seaice_hsnow_del2            =   0.0000000000000E+00
(PID.TID 0000.0001) // =======================================================
(PID.TID 0000.0001) // End MONITOR SEAICE statistics
(PID.TID 0000.0001) // =======================================================
(PID.TID 0000.0001)  MDS_READ_FIELD: opening global file: Uwindfield_shifted_8000.bin
(PID.TID 0000.0001)  MDS_READ_FIELD: opening global file: Uwindfield_shifted_8000.bin
(PID.TID 0000.0001)  MDS_READ_FIELD: opening global file: Vwindfield_shifted_8000.bin
(PID.TID 0000.0001)  MDS_READ_FIELD: opening global file: Vwindfield_shifted_8000.bin
(PID.TID 0000.0001) // =======================================================
(PID.TID 0000.0001) // Begin MONITOR EXF statistics
(PID.TID 0000.0001) // =======================================================
(PID.TID 0000.0001) %MON exf_tsnumber                 =                     0
(PID.TID 0000.0001) %MON exf_time_sec                 =   0.0000000000000E+00
(PID.TID 0000.0001) %MON exf_ustress_max              =   1.9231141691350E-01
(PID.TID 0000.0001) %MON exf_ustress_min              =  -1.9231141691350E-01
(PID.TID 0000.0001) %MON exf_ustress_mean             =  -8.4320106452651E-18
(PID.TID 0000.0001) %MON exf_ustress_sd               =   7.8445850617811E-02
(PID.TID 0000.0001) %MON exf_ustress_del2             =   1.8001144613245E-05
(PID.TID 0000.0001) %MON exf_vstress_max              =   1.9231141691350E-01
(PID.TID 0000.0001) %MON exf_vstress_min              =  -1.9231141691350E-01
(PID.TID 0000.0001) %MON exf_vstress_mean             =  -3.0929925287637E-18
(PID.TID 0000.0001) %MON exf_vstress_sd               =   7.8445850617811E-02
(PID.TID 0000.0001) %MON exf_vstress_del2             =   1.8001144613245E-05
(PID.TID 0000.0001) %MON exf_hflux_max                =   1.4838217697133E+02
(PID.TID 0000.0001) %MON exf_hflux_min                =   2.3433846067661E+01
(PID.TID 0000.0001) %MON exf_hflux_mean               =   1.0026753680428E+02
(PID.TID 0000.0001) %MON exf_hflux_sd                 =   3.0838562944901E+01
(PID.TID 0000.0001) %MON exf_hflux_del2               =   1.9427109427666E-02
(PID.TID 0000.0001) %MON exf_sflux_max                =   6.5752836695678E-08
(PID.TID 0000.0001) %MON exf_sflux_min                =   1.0404356137878E-08
(PID.TID 0000.0001) %MON exf_sflux_mean               =   4.4435192388582E-08
(PID.TID 0000.0001) %MON exf_sflux_sd                 =   1.3662828951091E-08
(PID.TID 0000.0001) %MON exf_sflux_del2               =   8.6031990164249E-12
(PID.TID 0000.0001) %MON exf_uwind_max                =   1.1026131745390E+01
(PID.TID 0000.0001) %MON exf_uwind_min                =  -1.1026131745390E+01
(PID.TID 0000.0001) %MON exf_uwind_mean               =   1.2732925824821E-17
(PID.TID 0000.0001) %MON exf_uwind_sd                 =   5.7462157775969E+00
(PID.TID 0000.0001) %MON exf_uwind_del2               =   9.3546309493694E-04
(PID.TID 0000.0001) %MON exf_vwind_max                =   1.1026131745390E+01
(PID.TID 0000.0001) %MON exf_vwind_min                =  -1.1026131745390E+01
(PID.TID 0000.0001) %MON exf_vwind_mean               =  -9.7179508884437E-17
(PID.TID 0000.0001) %MON exf_vwind_sd                 =   5.7462157775969E+00
(PID.TID 0000.0001) %MON exf_vwind_del2               =   9.3546309493693E-04
(PID.TID 0000.0001) %MON exf_wspeed_max               =   1.1036379708204E+01
(PID.TID 0000.0001) %MON exf_wspeed_min               =   1.6037210808494E+00
(PID.TID 0000.0001) %MON exf_wspeed_mean              =   7.8300458826945E+00
(PID.TID 0000.0001) %MON exf_wspeed_sd                =   2.1744822372939E+00
(PID.TID 0000.0001) %MON exf_wspeed_del2              =   1.6416115697052E-03
(PID.TID 0000.0001) %MON exf_evap_max                 =   6.5752836695678E-08
(PID.TID 0000.0001) %MON exf_evap_min                 =   1.0404356137878E-08
(PID.TID 0000.0001) %MON exf_evap_mean                =   4.4435192388582E-08
(PID.TID 0000.0001) %MON exf_evap_sd                  =   1.3662828951091E-08
(PID.TID 0000.0001) %MON exf_evap_del2                =   8.6031990164249E-12
(PID.TID 0000.0001) // =======================================================
(PID.TID 0000.0001) // End MONITOR EXF statistics
(PID.TID 0000.0001) // =======================================================
(PID.TID 0000.0001)  S/R SEAICE_KRYLOV: Picard iterate / total, KRYLOVgamma_lin, initial norm =       1      1 0.10000E+00 0.11420E+00
(PID.TID 0000.0001)  S/R SEAICE_KRYLOV: Picard iterate / total =      1 /      1, Nb. of FGMRES iterations =      1
(PID.TID 0000.0001)  S/R SEAICE_KRYLOV: Picard iterate / total, KRYLOVgamma_lin, initial norm =       2      2 0.50000E-01 0.19542E-03
(PID.TID 0000.0001)  S/R SEAICE_KRYLOV: Picard iterate / total =      2 /      2, Nb. of FGMRES iterations =      1
(PID.TID 0000.0001)  S/R SEAICE_KRYLOV: Picard iterate / total, KRYLOVgamma_lin, final   norm =       3      3 0.50000E-01 0.96561E-04
(PID.TID 0000.0001)  // =======================================================
(PID.TID 0000.0001)  // Begin KRYLOV statistics
(PID.TID 0000.0001)  // =======================================================
(PID.TID 0000.0001)  %KRYLOV_MON: time step              =          1
(PID.TID 0000.0001)  %KRYLOV_MON: Nb. of time steps      =          1
(PID.TID 0000.0001)  %KRYLOV_MON: Nb. of Picard steps    =          3
(PID.TID 0000.0001)  %KRYLOV_MON: Nb. of Krylov steps    =          2
(PID.TID 0000.0001)  %KRYLOV_MON: Nb. of Picard failures =          0
(PID.TID 0000.0001)  %KRYLOV_MON: Nb. of Krylov failures =          0
(PID.TID 0000.0001)  // =======================================================
(PID.TID 0000.0001)  // End KRYLOV statistics
(PID.TID 0000.0001)  // =======================================================
(PID.TID 0000.0001)  S/R SEAICE_KRYLOV: Total number FGMRES iterations =      2 in timestep          1
(PID.TID 0000.0001) // =======================================================
(PID.TID 0000.0001) // Begin MONITOR dynamic field statistics
(PID.TID 0000.0001) // =======================================================
(PID.TID 0000.0001) %MON time_tsnumber                =                     1
(PID.TID 0000.0001) %MON time_secondsf                =   2.5000000000000E+00
(PID.TID 0000.0001) %MON dynstat_eta_max              =   0.0000000000000E+00
(PID.TID 0000.0001) %MON dynstat_eta_min              =   0.0000000000000E+00
(PID.TID 0000.0001) %MON dynstat_eta_mean             =   0.0000000000000E+00
(PID.TID 0000.0001) %MON dynstat_eta_sd               =   0.0000000000000E+00
(PID.TID 0000.0001) %MON dynstat_eta_del2             =   0.0000000000000E+00
(PID.TID 0000.0001) %MON dynstat_uvel_max             =   9.8437500000000E-03
(PID.TID 0000.0001) %MON dynstat_uvel_min             =  -9.8437500000000E-03
(PID.TID 0000.0001) %MON dynstat_uvel_mean            =   0.0000000000000E+00
(PID.TID 0000.0001) %MON dynstat_uvel_sd              =   5.7727978755972E-03
(PID.TID 0000.0001) %MON dynstat_uvel_del2            =   1.0089048364799E-20
(PID.TID 0000.0001) %MON dynstat_vvel_max             =   9.8437500000000E-03
(PID.TID 0000.0001) %MON dynstat_vvel_min             =  -9.8437500000000E-03
(PID.TID 0000.0001) %MON dynstat_vvel_mean            =   0.0000000000000E+00
(PID.TID 0000.0001) %MON dynstat_vvel_sd              =   5.7727978755972E-03
(PID.TID 0000.0001) %MON dynstat_vvel_del2            =   1.0089048364799E-20
(PID.TID 0000.0001) %MON dynstat_wvel_max             =   1.1914062500000E-05
(PID.TID 0000.0001) %MON dynstat_wvel_min             =  -1.1914062500000E-05
(PID.TID 0000.0001) %MON dynstat_wvel_mean            =   3.4694469519536E-25
(PID.TID 0000.0001) %MON dynstat_wvel_sd              =   1.7200872247780E-06
(PID.TID 0000.0001) %MON dynstat_wvel_del2            =   2.8187489626940E-08
(PID.TID 0000.0001) %MON dynstat_theta_max            =  -1.6200000000000E+00
(PID.TID 0000.0001) %MON dynstat_theta_min            =  -1.6200000000000E+00
(PID.TID 0000.0001) %MON dynstat_theta_mean           =  -1.6200000000000E+00
(PID.TID 0000.0001) %MON dynstat_theta_sd             =   0.0000000000000E+00
(PID.TID 0000.0001) %MON dynstat_theta_del2           =   0.0000000000000E+00
(PID.TID 0000.0001) %MON dynstat_salt_max             =   3.0000000000000E+01
(PID.TID 0000.0001) %MON dynstat_salt_min             =   3.0000000000000E+01
(PID.TID 0000.0001) %MON dynstat_salt_mean            =   3.0000000000000E+01
(PID.TID 0000.0001) %MON dynstat_salt_sd              =   0.0000000000000E+00
(PID.TID 0000.0001) %MON dynstat_salt_del2            =   0.0000000000000E+00
(PID.TID 0000.0001) %MON trAdv_CFL_u_max              =   3.0761718750000E-06
(PID.TID 0000.0001) %MON trAdv_CFL_v_max              =   3.0761718750000E-06
(PID.TID 0000.0001) %MON trAdv_CFL_w_max              =   2.9785156250000E-06
(PID.TID 0000.0001) %MON advcfl_uvel_max              =   3.0761718750000E-06
(PID.TID 0000.0001) %MON advcfl_vvel_max              =   3.0761718750000E-06
(PID.TID 0000.0001) %MON advcfl_wvel_max              =   5.9570312500000E-06
(PID.TID 0000.0001) %MON advcfl_W_hf_max              =   0.0000000000000E+00
(PID.TID 0000.0001) %MON pe_b_mean                    =   0.0000000000000E+00
(PID.TID 0000.0001) %MON ke_max                       =   9.0844726562500E-05
(PID.TID 0000.0001) %MON ke_mean                      =   3.2804489135742E-05
(PID.TID 0000.0001) %MON ke_vol                       =   2.6214400000000E+12
(PID.TID 0000.0001) %MON vort_r_min                   =  -7.8125000000000E-08
(PID.TID 0000.0001) %MON vort_r_max                   =   1.2304687500000E-06
(PID.TID 0000.0001) %MON vort_a_mean                  =   1.4856000000000E-04
(PID.TID 0000.0001) %MON vort_a_sd                    =   1.5312918562496E-06
(PID.TID 0000.0001) %MON vort_p_mean                  =   1.5552375000000E-04
(PID.TID 0000.0001) %MON vort_p_sd                    =   5.5921473110222E-05
(PID.TID 0000.0001) %MON surfExpan_theta_mean         =   0.0000000000000E+00
(PID.TID 0000.0001) %MON surfExpan_salt_mean          =   1.3877787807814E-23
(PID.TID 0000.0001) // =======================================================
(PID.TID 0000.0001) // End MONITOR dynamic field statistics
(PID.TID 0000.0001) // =======================================================
(PID.TID 0000.0001) // =======================================================
(PID.TID 0000.0001) // Begin MONITOR SEAICE statistics
(PID.TID 0000.0001) // =======================================================
(PID.TID 0000.0001) %MON seaice_tsnumber              =                     1
(PID.TID 0000.0001) %MON seaice_time_sec              =   2.5000000000000E+00
(PID.TID 0000.0001) %MON seaice_uice_max              =   1.7542642467018E-03
(PID.TID 0000.0001) %MON seaice_uice_min              =  -1.7969958677366E-03
(PID.TID 0000.0001) %MON seaice_uice_mean             =  -4.6765033929822E-08
(PID.TID 0000.0001) %MON seaice_uice_sd               =   7.5487950240945E-04
(PID.TID 0000.0001) %MON seaice_uice_del2             =   1.6922146283049E-07
(PID.TID 0000.0001) %MON seaice_vice_max              =   1.7111245851376E-03
(PID.TID 0000.0001) %MON seaice_vice_min              =  -1.7344362147632E-03
(PID.TID 0000.0001) %MON seaice_vice_mean             =   1.9512399976944E-07
(PID.TID 0000.0001) %MON seaice_vice_sd               =   7.5114019969478E-04
(PID.TID 0000.0001) %MON seaice_vice_del2             =   1.6786623001367E-07
(PID.TID 0000.0001) %MON seaice_area_max              =   1.0000000000000E+00
(PID.TID 0000.0001) %MON seaice_area_min              =   9.9999992127119E-01
(PID.TID 0000.0001) %MON seaice_area_mean             =   9.9999999570750E-01
(PID.TID 0000.0001) %MON seaice_area_sd               =   1.0789795706489E-08
(PID.TID 0000.0001) %MON seaice_area_del2             =   1.5121814248364E-10
(PID.TID 0000.0001) %MON seaice_heff_max              =   3.0999867197300E-01
(PID.TID 0000.0001) %MON seaice_heff_min              =   2.9006056493844E-01
(PID.TID 0000.0001) %MON seaice_heff_mean             =   3.0067126525963E-01
(PID.TID 0000.0001) %MON seaice_heff_sd               =   5.0069224096608E-03
(PID.TID 0000.0001) %MON seaice_heff_del2             =   1.2853747819574E-05
(PID.TID 0000.0001) %MON seaice_hsnow_max             =   0.0000000000000E+00
(PID.TID 0000.0001) %MON seaice_hsnow_min             =   0.0000000000000E+00
(PID.TID 0000.0001) %MON seaice_hsnow_mean            =   0.0000000000000E+00
(PID.TID 0000.0001) %MON seaice_hsnow_sd              =   0.0000000000000E+00
(PID.TID 0000.0001) %MON seaice_hsnow_del2            =   0.0000000000000E+00
(PID.TID 0000.0001) // =======================================================
(PID.TID 0000.0001) // End MONITOR SEAICE statistics
(PID.TID 0000.0001) // =======================================================
 Computing Diagnostic #    163  SIuice       Counter:       1   Parms: UU      M1      
           Vector  Mate for  SIuice       Diagnostic #    164  SIvice   exists 
 Computing Diagnostic #    164  SIvice       Counter:       1   Parms: VV      M1      
           Vector  Mate for  SIvice       Diagnostic #    163  SIuice   exists 
 Computing Diagnostic #    149  SIheff       Counter:       1   Parms: SM      M1      
 Computing Diagnostic #    146  SIarea       Counter:       1   Parms: SM      M1      
 Computing Diagnostic #    228  SIshear      Counter:       1   Parms: SM      M1      
 Computing Diagnostic #    233  SIcohes      Counter:       1   Parms: SM      M1      
 Computing Diagnostic #    221  SIsig1       Counter:       1   Parms: SM      M1      
 Computing Diagnostic #    222  SIsig2       Counter:       1   Parms: SM      M1      
 Computing Diagnostic #    231  SIdamage     Counter:       1   Parms: SM      M1      
 Computing Diagnostic #    165  SItaux       Counter:       1   Parms: UU      U1      
           Vector  Mate for  SItaux       Diagnostic #    166  SItauy   exists 
 Computing Diagnostic #    166  SItauy       Counter:       1   Parms: VV      U1      
           Vector  Mate for  SItauy       Diagnostic #    165  SItaux   exists 
 Computing Diagnostic #    133  EXFuwind     Counter:       1   Parms: UM      U1      
 Computing Diagnostic #    134  EXFvwind     Counter:       1   Parms: VM      U1      
(PID.TID 0000.0001)  S/R SEAICE_KRYLOV: Picard iterate / total, KRYLOVgamma_lin, initial norm =       1    101 0.10000E+00 0.11381E+00
(PID.TID 0000.0001)  S/R SEAICE_KRYLOV: Picard iterate / total =      1 /    101, Nb. of FGMRES iterations =      1
(PID.TID 0000.0001)  S/R SEAICE_KRYLOV: Picard iterate / total, KRYLOVgamma_lin, initial norm =       2    102 0.50000E-01 0.16949E-03
(PID.TID 0000.0001)  S/R SEAICE_KRYLOV: Picard iterate / total =      2 /    102, Nb. of FGMRES iterations =      1
(PID.TID 0000.0001)  S/R SEAICE_KRYLOV: Picard iterate / total, KRYLOVgamma_lin, final   norm =       3    103 0.50000E-01 0.83383E-04
(PID.TID 0000.0001)  // =======================================================
(PID.TID 0000.0001)  // Begin KRYLOV statistics
(PID.TID 0000.0001)  // =======================================================
(PID.TID 0000.0001)  %KRYLOV_MON: time step              =          2
(PID.TID 0000.0001)  %KRYLOV_MON: Nb. of time steps      =          1
(PID.TID 0000.0001)  %KRYLOV_MON: Nb. of Picard steps    =          3
(PID.TID 0000.0001)  %KRYLOV_MON: Nb. of Krylov steps    =          2
(PID.TID 0000.0001)  %KRYLOV_MON: Nb. of Picard failures =          0
(PID.TID 0000.0001)  %KRYLOV_MON: Nb. of Krylov failures =          0
(PID.TID 0000.0001)  // =======================================================
(PID.TID 0000.0001)  // End KRYLOV statistics
(PID.TID 0000.0001)  // =======================================================
(PID.TID 0000.0001)  S/R SEAICE_KRYLOV: Total number FGMRES iterations =      2 in timestep          2
(PID.TID 0000.0001) // =======================================================
(PID.TID 0000.0001) // Begin MONITOR dynamic field statistics
(PID.TID 0000.0001) // =======================================================
(PID.TID 0000.0001) %MON time_tsnumber                =                     2
(PID.TID 0000.0001) %MON time_secondsf                =   5.0000000000000E+00
(PID.TID 0000.0001) %MON dynstat_eta_max              =   0.0000000000000E+00
(PID.TID 0000.0001) %MON dynstat_eta_min              =   0.0000000000000E+00
(PID.TID 0000.0001) %MON dynstat_eta_mean             =   0.0000000000000E+00
(PID.TID 0000.0001) %MON dynstat_eta_sd               =   0.0000000000000E+00
(PID.TID 0000.0001) %MON dynstat_eta_del2             =   0.0000000000000E+00
(PID.TID 0000.0001) %MON dynstat_uvel_max             =   9.8437500000000E-03
(PID.TID 0000.0001) %MON dynstat_uvel_min             =  -9.8437500000000E-03
(PID.TID 0000.0001) %MON dynstat_uvel_mean            =   0.0000000000000E+00
(PID.TID 0000.0001) %MON dynstat_uvel_sd              =   5.7727978755972E-03
(PID.TID 0000.0001) %MON dynstat_uvel_del2            =   1.0089048364799E-20
(PID.TID 0000.0001) %MON dynstat_vvel_max             =   9.8437500000000E-03
(PID.TID 0000.0001) %MON dynstat_vvel_min             =  -9.8437500000000E-03
(PID.TID 0000.0001) %MON dynstat_vvel_mean            =   0.0000000000000E+00
(PID.TID 0000.0001) %MON dynstat_vvel_sd              =   5.7727978755972E-03
(PID.TID 0000.0001) %MON dynstat_vvel_del2            =   1.0089048364799E-20
(PID.TID 0000.0001) %MON dynstat_wvel_max             =   1.1914062500000E-05
(PID.TID 0000.0001) %MON dynstat_wvel_min             =  -1.1914062500000E-05
(PID.TID 0000.0001) %MON dynstat_wvel_mean            =   3.4694469519536E-25
(PID.TID 0000.0001) %MON dynstat_wvel_sd              =   1.7200872247780E-06
(PID.TID 0000.0001) %MON dynstat_wvel_del2            =   2.8187489626940E-08
(PID.TID 0000.0001) %MON dynstat_theta_max            =  -1.6200000000000E+00
(PID.TID 0000.0001) %MON dynstat_theta_min            =  -1.6200000000000E+00
(PID.TID 0000.0001) %MON dynstat_theta_mean           =  -1.6200000000000E+00
(PID.TID 0000.0001) %MON dynstat_theta_sd             =   0.0000000000000E+00
(PID.TID 0000.0001) %MON dynstat_theta_del2           =   0.0000000000000E+00
(PID.TID 0000.0001) %MON dynstat_salt_max             =   3.0000000000000E+01
(PID.TID 0000.0001) %MON dynstat_salt_min             =   3.0000000000000E+01
(PID.TID 0000.0001) %MON dynstat_salt_mean            =   3.0000000000000E+01
(PID.TID 0000.0001) %MON dynstat_salt_sd              =   0.0000000000000E+00
(PID.TID 0000.0001) %MON dynstat_salt_del2            =   0.0000000000000E+00
(PID.TID 0000.0001) %MON trAdv_CFL_u_max              =   3.0761718750000E-06
(PID.TID 0000.0001) %MON trAdv_CFL_v_max              =   3.0761718750000E-06
(PID.TID 0000.0001) %MON trAdv_CFL_w_max              =   2.9785156250000E-06
(PID.TID 0000.0001) %MON advcfl_uvel_max              =   3.0761718750000E-06
(PID.TID 0000.0001) %MON advcfl_vvel_max              =   3.0761718750000E-06
(PID.TID 0000.0001) %MON advcfl_wvel_max              =   5.9570312500000E-06
(PID.TID 0000.0001) %MON advcfl_W_hf_max              =   0.0000000000000E+00
(PID.TID 0000.0001) %MON pe_b_mean                    =   0.0000000000000E+00
(PID.TID 0000.0001) %MON ke_max                       =   9.0844726562500E-05
(PID.TID 0000.0001) %MON ke_mean                      =   3.2804489135742E-05
(PID.TID 0000.0001) %MON ke_vol                       =   2.6214400000000E+12
(PID.TID 0000.0001) %MON vort_r_min                   =  -7.8125000000000E-08
(PID.TID 0000.0001) %MON vort_r_max                   =   1.2304687500000E-06
(PID.TID 0000.0001) %MON vort_a_mean                  =   1.4856000000000E-04
(PID.TID 0000.0001) %MON vort_a_sd                    =   1.5312918562496E-06
(PID.TID 0000.0001) %MON vort_p_mean                  =   1.5552375000000E-04
(PID.TID 0000.0001) %MON vort_p_sd                    =   5.5921473110222E-05
(PID.TID 0000.0001) %MON surfExpan_theta_mean         =   0.0000000000000E+00
(PID.TID 0000.0001) %MON surfExpan_salt_mean          =   1.3877787807814E-23
(PID.TID 0000.0001) // =======================================================
(PID.TID 0000.0001) // End MONITOR dynamic field statistics
(PID.TID 0000.0001) // =======================================================
(PID.TID 0000.0001) // =======================================================
(PID.TID 0000.0001) // Begin MONITOR SEAICE statistics
(PID.TID 0000.0001) // =======================================================
(PID.TID 0000.0001) %MON seaice_tsnumber              =                     2
(PID.TID 0000.0001) %MON seaice_time_sec              =   5.0000000000000E+00
(PID.TID 0000.0001) %MON seaice_uice_max              =   3.5028830972023E-03
(PID.TID 0000.0001) %MON seaice_uice_min              =  -3.5870816022007E-03
(PID.TID 0000.0001) %MON seaice_uice_mean             =  -8.9080820097077E-08
(PID.TID 0000.0001) %MON seaice_uice_sd               =   1.5071905914831E-03
(PID.TID 0000.0001) %MON seaice_uice_del2             =   3.5374935632392E-07
(PID.TID 0000.0001) %MON seaice_vice_max              =   3.4170751872596E-03
(PID.TID 0000.0001) %MON seaice_vice_min              =  -3.4632340580678E-03
(PID.TID 0000.0001) %MON seaice_vice_mean             =   3.8335176329893E-07
(PID.TID 0000.0001) %MON seaice_vice_sd               =   1.4997364938497E-03
(PID.TID 0000.0001) %MON seaice_vice_del2             =   3.5161119863053E-07
(PID.TID 0000.0001) %MON seaice_area_max              =   1.0000000000000E+00
(PID.TID 0000.0001) %MON seaice_area_min              =   9.9999977126197E-01
(PID.TID 0000.0001) %MON seaice_area_mean             =   9.9999998716397E-01
(PID.TID 0000.0001) %MON seaice_area_sd               =   3.1381346528091E-08
(PID.TID 0000.0001) %MON seaice_area_del2             =   4.0939395440448E-10
(PID.TID 0000.0001) %MON seaice_heff_max              =   3.0999866972138E-01
(PID.TID 0000.0001) %MON seaice_heff_min              =   2.9006056257448E-01
(PID.TID 0000.0001) %MON seaice_heff_mean             =   3.0067126525963E-01
(PID.TID 0000.0001) %MON seaice_heff_sd               =   5.0069224988738E-03
(PID.TID 0000.0001) %MON seaice_heff_del2             =   1.2853747629622E-05
(PID.TID 0000.0001) %MON seaice_hsnow_max             =   0.0000000000000E+00
(PID.TID 0000.0001) %MON seaice_hsnow_min             =   0.0000000000000E+00
(PID.TID 0000.0001) %MON seaice_hsnow_mean            =   0.0000000000000E+00
(PID.TID 0000.0001) %MON seaice_hsnow_sd              =   0.0000000000000E+00
(PID.TID 0000.0001) %MON seaice_hsnow_del2            =   0.0000000000000E+00
(PID.TID 0000.0001) // =======================================================
(PID.TID 0000.0001) // End MONITOR SEAICE statistics
(PID.TID 0000.0001) // =======================================================
 Computing Diagnostic #    163  SIuice       Counter:       1   Parms: UU      M1      
           Vector  Mate for  SIuice       Diagnostic #    164  SIvice   exists 
 Computing Diagnostic #    164  SIvice       Counter:       1   Parms: VV      M1      
           Vector  Mate for  SIvice       Diagnostic #    163  SIuice   exists 
 Computing Diagnostic #    149  SIheff       Counter:       1   Parms: SM      M1      
 Computing Diagnostic #    146  SIarea       Counter:       1   Parms: SM      M1      
 Computing Diagnostic #    228  SIshear      Counter:       1   Parms: SM      M1      
 Computing Diagnostic #    233  SIcohes      Counter:       1   Parms: SM      M1      
 Computing Diagnostic #    221  SIsig1       Counter:       1   Parms: SM      M1      
 Computing Diagnostic #    222  SIsig2       Counter:       1   Parms: SM      M1      
 Computing Diagnostic #    231  SIdamage     Counter:       1   Parms: SM      M1      
 Computing Diagnostic #    165  SItaux       Counter:       1   Parms: UU      U1      
           Vector  Mate for  SItaux       Diagnostic #    166  SItauy   exists 
 Computing Diagnostic #    166  SItauy       Counter:       1   Parms: VV      U1      
           Vector  Mate for  SItauy       Diagnostic #    165  SItaux   exists 
 Computing Diagnostic #    133  EXFuwind     Counter:       1   Parms: UM      U1      
 Computing Diagnostic #    134  EXFvwind     Counter:       1   Parms: VM      U1      
(PID.TID 0000.0001)  S/R SEAICE_KRYLOV: Picard iterate / total, KRYLOVgamma_lin, initial norm =       1    201 0.10000E+00 0.11337E+00
(PID.TID 0000.0001)  S/R SEAICE_KRYLOV: Picard iterate / total =      1 /    201, Nb. of FGMRES iterations =      1
(PID.TID 0000.0001)  S/R SEAICE_KRYLOV: Picard iterate / total, KRYLOVgamma_lin, initial norm =       2    202 0.50000E-01 0.18800E-03
(PID.TID 0000.0001)  S/R SEAICE_KRYLOV: Picard iterate / total =      2 /    202, Nb. of FGMRES iterations =      1
(PID.TID 0000.0001)  S/R SEAICE_KRYLOV: Picard iterate / total, KRYLOVgamma_lin, final   norm =       3    203 0.50000E-01 0.59295E-04
(PID.TID 0000.0001)  // =======================================================
(PID.TID 0000.0001)  // Begin KRYLOV statistics
(PID.TID 0000.0001)  // =======================================================
(PID.TID 0000.0001)  %KRYLOV_MON: time step              =          3
(PID.TID 0000.0001)  %KRYLOV_MON: Nb. of time steps      =          1
(PID.TID 0000.0001)  %KRYLOV_MON: Nb. of Picard steps    =          3
(PID.TID 0000.0001)  %KRYLOV_MON: Nb. of Krylov steps    =          2
(PID.TID 0000.0001)  %KRYLOV_MON: Nb. of Picard failures =          0
(PID.TID 0000.0001)  %KRYLOV_MON: Nb. of Krylov failures =          0
(PID.TID 0000.0001)  // =======================================================
(PID.TID 0000.0001)  // End KRYLOV statistics
(PID.TID 0000.0001)  // =======================================================
(PID.TID 0000.0001)  S/R SEAICE_KRYLOV: Total number FGMRES iterations =      2 in timestep          3
(PID.TID 0000.0001) // =======================================================
(PID.TID 0000.0001) // Begin MONITOR dynamic field statistics
(PID.TID 0000.0001) // =======================================================
(PID.TID 0000.0001) %MON time_tsnumber                =                     3
(PID.TID 0000.0001) %MON time_secondsf                =   7.5000000000000E+00
(PID.TID 0000.0001) %MON dynstat_eta_max              =   0.0000000000000E+00
(PID.TID 0000.0001) %MON dynstat_eta_min              =   0.0000000000000E+00
(PID.TID 0000.0001) %MON dynstat_eta_mean             =   0.0000000000000E+00
(PID.TID 0000.0001) %MON dynstat_eta_sd               =   0.0000000000000E+00
(PID.TID 0000.0001) %MON dynstat_eta_del2             =   0.0000000000000E+00
(PID.TID 0000.0001) %MON dynstat_uvel_max             =   9.8437500000000E-03
(PID.TID 0000.0001) %MON dynstat_uvel_min             =  -9.8437500000000E-03
(PID.TID 0000.0001) %MON dynstat_uvel_mean            =   0.0000000000000E+00
(PID.TID 0000.0001) %MON dynstat_uvel_sd              =   5.7727978755972E-03
(PID.TID 0000.0001) %MON dynstat_uvel_del2            =   1.0089048364799E-20
(PID.TID 0000.0001) %MON dynstat_vvel_max             =   9.8437500000000E-03
(PID.TID 0000.0001) %MON dynstat_vvel_min             =  -9.8437500000000E-03
(PID.TID 0000.0001) %MON dynstat_vvel_mean            =   0.0000000000000E+00
(PID.TID 0000.0001) %MON dynstat_vvel_sd              =   5.7727978755972E-03
(PID.TID 0000.0001) %MON dynstat_vvel_del2            =   1.0089048364799E-20
(PID.TID 0000.0001) %MON dynstat_wvel_max             =   1.1914062500000E-05
(PID.TID 0000.0001) %MON dynstat_wvel_min             =  -1.1914062500000E-05
(PID.TID 0000.0001) %MON dynstat_wvel_mean            =   3.4694469519536E-25
(PID.TID 0000.0001) %MON dynstat_wvel_sd              =   1.7200872247780E-06
(PID.TID 0000.0001) %MON dynstat_wvel_del2            =   2.8187489626940E-08
(PID.TID 0000.0001) %MON dynstat_theta_max            =  -1.6200000000000E+00
(PID.TID 0000.0001) %MON dynstat_theta_min            =  -1.6200000000000E+00
(PID.TID 0000.0001) %MON dynstat_theta_mean           =  -1.6200000000000E+00
(PID.TID 0000.0001) %MON dynstat_theta_sd             =   0.0000000000000E+00
(PID.TID 0000.0001) %MON dynstat_theta_del2           =   0.0000000000000E+00
(PID.TID 0000.0001) %MON dynstat_salt_max             =   3.0000000000000E+01
(PID.TID 0000.0001) %MON dynstat_salt_min             =   3.0000000000000E+01
(PID.TID 0000.0001) %MON dynstat_salt_mean            =   3.0000000000000E+01
(PID.TID 0000.0001) %MON dynstat_salt_sd              =   0.0000000000000E+00
(PID.TID 0000.0001) %MON dynstat_salt_del2            =   0.0000000000000E+00
(PID.TID 0000.0001) %MON trAdv_CFL_u_max              =   3.0761718750000E-06
(PID.TID 0000.0001) %MON trAdv_CFL_v_max              =   3.0761718750000E-06
(PID.TID 0000.0001) %MON trAdv_CFL_w_max              =   2.9785156250000E-06
(PID.TID 0000.0001) %MON advcfl_uvel_max              =   3.0761718750000E-06
(PID.TID 0000.0001) %MON advcfl_vvel_max              =   3.0761718750000E-06
(PID.TID 0000.0001) %MON advcfl_wvel_max              =   5.9570312500000E-06
(PID.TID 0000.0001) %MON advcfl_W_hf_max              =   0.0000000000000E+00
(PID.TID 0000.0001) %MON pe_b_mean                    =   0.0000000000000E+00
(PID.TID 0000.0001) %MON ke_max                       =   9.0844726562500E-05
(PID.TID 0000.0001) %MON ke_mean                      =   3.2804489135742E-05
(PID.TID 0000.0001) %MON ke_vol                       =   2.6214400000000E+12
(PID.TID 0000.0001) %MON vort_r_min                   =  -7.8125000000000E-08
(PID.TID 0000.0001) %MON vort_r_max                   =   1.2304687500000E-06
(PID.TID 0000.0001) %MON vort_a_mean                  =   1.4856000000000E-04
(PID.TID 0000.0001) %MON vort_a_sd                    =   1.5312918562496E-06
(PID.TID 0000.0001) %MON vort_p_mean                  =   1.5552375000000E-04
(PID.TID 0000.0001) %MON vort_p_sd                    =   5.5921473110222E-05
(PID.TID 0000.0001) %MON surfExpan_theta_mean         =   0.0000000000000E+00
(PID.TID 0000.0001) %MON surfExpan_salt_mean          =   1.3877787807814E-23
(PID.TID 0000.0001) // =======================================================
(PID.TID 0000.0001) // End MONITOR dynamic field statistics
(PID.TID 0000.0001) // =======================================================
(PID.TID 0000.0001) // =======================================================
(PID.TID 0000.0001) // Begin MONITOR SEAICE statistics
(PID.TID 0000.0001) // =======================================================
(PID.TID 0000.0001) %MON seaice_tsnumber              =                     3
(PID.TID 0000.0001) %MON seaice_time_sec              =   7.5000000000000E+00
(PID.TID 0000.0001) %MON seaice_uice_max              =   5.2451222518417E-03
(PID.TID 0000.0001) %MON seaice_uice_min              =  -5.3690012119632E-03
(PID.TID 0000.0001) %MON seaice_uice_mean             =  -1.2662787536915E-07
(PID.TID 0000.0001) %MON seaice_uice_sd               =   2.2566207415648E-03
(PID.TID 0000.0001) %MON seaice_uice_del2             =   5.7517757372705E-07
(PID.TID 0000.0001) %MON seaice_vice_max              =   5.1172216890728E-03
(PID.TID 0000.0001) %MON seaice_vice_min              =  -5.1855900030856E-03
(PID.TID 0000.0001) %MON seaice_vice_mean             =   5.6402513516397E-07
(PID.TID 0000.0001) %MON seaice_vice_sd               =   2.2454814324602E-03
(PID.TID 0000.0001) %MON seaice_vice_del2             =   5.7317202480601E-07
(PID.TID 0000.0001) %MON seaice_area_max              =   1.0000000000000E+00
(PID.TID 0000.0001) %MON seaice_area_min              =   9.9999955873436E-01
(PID.TID 0000.0001) %MON seaice_area_mean             =   9.9999997441775E-01
(PID.TID 0000.0001) %MON seaice_area_sd               =   6.0656274328072E-08
(PID.TID 0000.0001) %MON seaice_area_del2             =   7.2661246612321E-10
(PID.TID 0000.0001) %MON seaice_heff_max              =   3.0999866635412E-01
(PID.TID 0000.0001) %MON seaice_heff_min              =   2.9006055904905E-01
(PID.TID 0000.0001) %MON seaice_heff_mean             =   3.0067126525963E-01
(PID.TID 0000.0001) %MON seaice_heff_sd               =   5.0069226127610E-03
(PID.TID 0000.0001) %MON seaice_heff_del2             =   1.2853747579070E-05
(PID.TID 0000.0001) %MON seaice_hsnow_max             =   0.0000000000000E+00
(PID.TID 0000.0001) %MON seaice_hsnow_min             =   0.0000000000000E+00
(PID.TID 0000.0001) %MON seaice_hsnow_mean            =   0.0000000000000E+00
(PID.TID 0000.0001) %MON seaice_hsnow_sd              =   0.0000000000000E+00
(PID.TID 0000.0001) %MON seaice_hsnow_del2            =   0.0000000000000E+00
(PID.TID 0000.0001) // =======================================================
(PID.TID 0000.0001) // End MONITOR SEAICE statistics
(PID.TID 0000.0001) // =======================================================
 Computing Diagnostic #    163  SIuice       Counter:       1   Parms: UU      M1      
           Vector  Mate for  SIuice       Diagnostic #    164  SIvice   exists 
 Computing Diagnostic #    164  SIvice       Counter:       1   Parms: VV      M1      
           Vector  Mate for  SIvice       Diagnostic #    163  SIuice   exists 
 Computing Diagnostic #    149  SIheff       Counter:       1   Parms: SM      M1      
 Computing Diagnostic #    146  SIarea       Counter:       1   Parms: SM      M1      
 Computing Diagnostic #    228  SIshear      Counter:       1   Parms: SM      M1      
 Computing Diagnostic #    233  SIcohes      Counter:       1   Parms: SM      M1      
 Computing Diagnostic #    221  SIsig1       Counter:       1   Parms: SM      M1      
 Computing Diagnostic #    222  SIsig2       Counter:       1   Parms: SM      M1      
 Computing Diagnostic #    231  SIdamage     Counter:       1   Parms: SM      M1      
 Computing Diagnostic #    165  SItaux       Counter:       1   Parms: UU      U1      
           Vector  Mate for  SItaux       Diagnostic #    166  SItauy   exists 
 Computing Diagnostic #    166  SItauy       Counter:       1   Parms: VV      U1      
           Vector  Mate for  SItauy       Diagnostic #    165  SItaux   exists 
 Computing Diagnostic #    133  EXFuwind     Counter:       1   Parms: UM      U1      
 Computing Diagnostic #    134  EXFvwind     Counter:       1   Parms: VM      U1      
(PID.TID 0000.0001)  S/R SEAICE_KRYLOV: Picard iterate / total, KRYLOVgamma_lin, initial norm =       1    301 0.10000E+00 0.11292E+00
(PID.TID 0000.0001)  S/R SEAICE_KRYLOV: Picard iterate / total =      1 /    301, Nb. of FGMRES iterations =      1
(PID.TID 0000.0001)  S/R SEAICE_KRYLOV: Picard iterate / total, KRYLOVgamma_lin, initial norm =       2    302 0.50000E-01 0.24169E-03
(PID.TID 0000.0001)  S/R SEAICE_KRYLOV: Picard iterate / total =      2 /    302, Nb. of FGMRES iterations =      1
(PID.TID 0000.0001)  S/R SEAICE_KRYLOV: Picard iterate / total, KRYLOVgamma_lin, final   norm =       3    303 0.50000E-01 0.39679E-04
(PID.TID 0000.0001)  // =======================================================
(PID.TID 0000.0001)  // Begin KRYLOV statistics
(PID.TID 0000.0001)  // =======================================================
(PID.TID 0000.0001)  %KRYLOV_MON: time step              =          4
(PID.TID 0000.0001)  %KRYLOV_MON: Nb. of time steps      =          1
(PID.TID 0000.0001)  %KRYLOV_MON: Nb. of Picard steps    =          3
(PID.TID 0000.0001)  %KRYLOV_MON: Nb. of Krylov steps    =          2
(PID.TID 0000.0001)  %KRYLOV_MON: Nb. of Picard failures =          0
(PID.TID 0000.0001)  %KRYLOV_MON: Nb. of Krylov failures =          0
(PID.TID 0000.0001)  // =======================================================
(PID.TID 0000.0001)  // End KRYLOV statistics
(PID.TID 0000.0001)  // =======================================================
(PID.TID 0000.0001)  S/R SEAICE_KRYLOV: Total number FGMRES iterations =      2 in timestep          4
(PID.TID 0000.0001) // =======================================================
(PID.TID 0000.0001) // Begin MONITOR dynamic field statistics
(PID.TID 0000.0001) // =======================================================
(PID.TID 0000.0001) %MON time_tsnumber                =                     4
(PID.TID 0000.0001) %MON time_secondsf                =   1.0000000000000E+01
(PID.TID 0000.0001) %MON dynstat_eta_max              =   0.0000000000000E+00
(PID.TID 0000.0001) %MON dynstat_eta_min              =   0.0000000000000E+00
(PID.TID 0000.0001) %MON dynstat_eta_mean             =   0.0000000000000E+00
(PID.TID 0000.0001) %MON dynstat_eta_sd               =   0.0000000000000E+00
(PID.TID 0000.0001) %MON dynstat_eta_del2             =   0.0000000000000E+00
(PID.TID 0000.0001) %MON dynstat_uvel_max             =   9.8437500000000E-03
(PID.TID 0000.0001) %MON dynstat_uvel_min             =  -9.8437500000000E-03
(PID.TID 0000.0001) %MON dynstat_uvel_mean            =   0.0000000000000E+00
(PID.TID 0000.0001) %MON dynstat_uvel_sd              =   5.7727978755972E-03
(PID.TID 0000.0001) %MON dynstat_uvel_del2            =   1.0089048364799E-20
(PID.TID 0000.0001) %MON dynstat_vvel_max             =   9.8437500000000E-03
(PID.TID 0000.0001) %MON dynstat_vvel_min             =  -9.8437500000000E-03
(PID.TID 0000.0001) %MON dynstat_vvel_mean            =   0.0000000000000E+00
(PID.TID 0000.0001) %MON dynstat_vvel_sd              =   5.7727978755972E-03
(PID.TID 0000.0001) %MON dynstat_vvel_del2            =   1.0089048364799E-20
(PID.TID 0000.0001) %MON dynstat_wvel_max             =   1.1914062500000E-05
(PID.TID 0000.0001) %MON dynstat_wvel_min             =  -1.1914062500000E-05
(PID.TID 0000.0001) %MON dynstat_wvel_mean            =   3.4694469519536E-25
(PID.TID 0000.0001) %MON dynstat_wvel_sd              =   1.7200872247780E-06
(PID.TID 0000.0001) %MON dynstat_wvel_del2            =   2.8187489626940E-08
(PID.TID 0000.0001) %MON dynstat_theta_max            =  -1.6200000000000E+00
(PID.TID 0000.0001) %MON dynstat_theta_min            =  -1.6200000000000E+00
(PID.TID 0000.0001) %MON dynstat_theta_mean           =  -1.6200000000000E+00
(PID.TID 0000.0001) %MON dynstat_theta_sd             =   0.0000000000000E+00
(PID.TID 0000.0001) %MON dynstat_theta_del2           =   0.0000000000000E+00
(PID.TID 0000.0001) %MON dynstat_salt_max             =   3.0000000000000E+01
(PID.TID 0000.0001) %MON dynstat_salt_min             =   3.0000000000000E+01
(PID.TID 0000.0001) %MON dynstat_salt_mean            =   3.0000000000000E+01
(PID.TID 0000.0001) %MON dynstat_salt_sd              =   0.0000000000000E+00
(PID.TID 0000.0001) %MON dynstat_salt_del2            =   0.0000000000000E+00
(PID.TID 0000.0001) %MON trAdv_CFL_u_max              =   3.0761718750000E-06
(PID.TID 0000.0001) %MON trAdv_CFL_v_max              =   3.0761718750000E-06
(PID.TID 0000.0001) %MON trAdv_CFL_w_max              =   2.9785156250000E-06
(PID.TID 0000.0001) %MON advcfl_uvel_max              =   3.0761718750000E-06
(PID.TID 0000.0001) %MON advcfl_vvel_max              =   3.0761718750000E-06
(PID.TID 0000.0001) %MON advcfl_wvel_max              =   5.9570312500000E-06
(PID.TID 0000.0001) %MON advcfl_W_hf_max              =   0.0000000000000E+00
(PID.TID 0000.0001) %MON pe_b_mean                    =   0.0000000000000E+00
(PID.TID 0000.0001) %MON ke_max                       =   9.0844726562500E-05
(PID.TID 0000.0001) %MON ke_mean                      =   3.2804489135742E-05
(PID.TID 0000.0001) %MON ke_vol                       =   2.6214400000000E+12
(PID.TID 0000.0001) %MON vort_r_min                   =  -7.8125000000000E-08
(PID.TID 0000.0001) %MON vort_r_max                   =   1.2304687500000E-06
(PID.TID 0000.0001) %MON vort_a_mean                  =   1.4856000000000E-04
(PID.TID 0000.0001) %MON vort_a_sd                    =   1.5312918562496E-06
(PID.TID 0000.0001) %MON vort_p_mean                  =   1.5552375000000E-04
(PID.TID 0000.0001) %MON vort_p_sd                    =   5.5921473110222E-05
(PID.TID 0000.0001) %MON surfExpan_theta_mean         =   0.0000000000000E+00
(PID.TID 0000.0001) %MON surfExpan_salt_mean          =   1.3877787807814E-23
(PID.TID 0000.0001) // =======================================================
(PID.TID 0000.0001) // End MONITOR dynamic field statistics
(PID.TID 0000.0001) // =======================================================
(PID.TID 0000.0001) // =======================================================
(PID.TID 0000.0001) // Begin MONITOR SEAICE statistics
(PID.TID 0000.0001) // =======================================================
(PID.TID 0000.0001) %MON seaice_tsnumber              =                     4
(PID.TID 0000.0001) %MON seaice_time_sec              =   1.0000000000000E+01
(PID.TID 0000.0001) %MON seaice_uice_max              =   6.9802446600443E-03
(PID.TID 0000.0001) %MON seaice_uice_min              =  -7.1421187352951E-03
(PID.TID 0000.0001) %MON seaice_uice_mean             =  -1.6379894617178E-07
(PID.TID 0000.0001) %MON seaice_uice_sd               =   3.0031029937128E-03
(PID.TID 0000.0001) %MON seaice_uice_del2             =   8.2964162322915E-07
(PID.TID 0000.0001) %MON seaice_vice_max              =   6.8109377039361E-03
(PID.TID 0000.0001) %MON seaice_vice_min              =  -6.9007042153874E-03
(PID.TID 0000.0001) %MON seaice_vice_mean             =   7.4995608284106E-07
(PID.TID 0000.0001) %MON seaice_vice_sd               =   2.9883159558930E-03
(PID.TID 0000.0001) %MON seaice_vice_del2             =   8.2859553279992E-07
(PID.TID 0000.0001) %MON seaice_area_max              =   1.0000000000000E+00
(PID.TID 0000.0001) %MON seaice_area_min              =   9.9999928701217E-01
(PID.TID 0000.0001) %MON seaice_area_mean             =   9.9999995750109E-01
(PID.TID 0000.0001) %MON seaice_area_sd               =   9.8024153879052E-08
(PID.TID 0000.0001) %MON seaice_area_del2             =   1.0866815194724E-09
(PID.TID 0000.0001) %MON seaice_heff_max              =   3.0999866187921E-01
(PID.TID 0000.0001) %MON seaice_heff_min              =   2.9006055437991E-01
(PID.TID 0000.0001) %MON seaice_heff_mean             =   3.0067126525963E-01
(PID.TID 0000.0001) %MON seaice_heff_sd               =   5.0069227396386E-03
(PID.TID 0000.0001) %MON seaice_heff_del2             =   1.2853747695309E-05
(PID.TID 0000.0001) %MON seaice_hsnow_max             =   0.0000000000000E+00
(PID.TID 0000.0001) %MON seaice_hsnow_min             =   0.0000000000000E+00
(PID.TID 0000.0001) %MON seaice_hsnow_mean            =   0.0000000000000E+00
(PID.TID 0000.0001) %MON seaice_hsnow_sd              =   0.0000000000000E+00
(PID.TID 0000.0001) %MON seaice_hsnow_del2            =   0.0000000000000E+00
(PID.TID 0000.0001) // =======================================================
(PID.TID 0000.0001) // End MONITOR SEAICE statistics
(PID.TID 0000.0001) // =======================================================
 Computing Diagnostic #    163  SIuice       Counter:       1   Parms: UU      M1      
           Vector  Mate for  SIuice       Diagnostic #    164  SIvice   exists 
 Computing Diagnostic #    164  SIvice       Counter:       1   Parms: VV      M1      
           Vector  Mate for  SIvice       Diagnostic #    163  SIuice   exists 
 Computing Diagnostic #    149  SIheff       Counter:       1   Parms: SM      M1      
 Computing Diagnostic #    146  SIarea       Counter:       1   Parms: SM      M1      
 Computing Diagnostic #    228  SIshear      Counter:       1   Parms: SM      M1      
 Computing Diagnostic #    233  SIcohes      Counter:       1   Parms: SM      M1      
 Computing Diagnostic #    221  SIsig1       Counter:       1   Parms: SM      M1      
 Computing Diagnostic #    222  SIsig2       Counter:       1   Parms: SM      M1      
 Computing Diagnostic #    231  SIdamage     Counter:       1   Parms: SM      M1      
 Computing Diagnostic #    165  SItaux       Counter:       1   Parms: UU      U1      
           Vector  Mate for  SItaux       Diagnostic #    166  SItauy   exists 
 Computing Diagnostic #    166  SItauy       Counter:       1   Parms: VV      U1      
           Vector  Mate for  SItauy       Diagnostic #    165  SItaux   exists 
 Computing Diagnostic #    133  EXFuwind     Counter:       1   Parms: UM      U1      
 Computing Diagnostic #    134  EXFvwind     Counter:       1   Parms: VM      U1      
(PID.TID 0000.0001)  S/R SEAICE_KRYLOV: Picard iterate / total, KRYLOVgamma_lin, initial norm =       1    401 0.10000E+00 0.11249E+00
(PID.TID 0000.0001)  S/R SEAICE_KRYLOV: Picard iterate / total =      1 /    401, Nb. of FGMRES iterations =      1
(PID.TID 0000.0001)  S/R SEAICE_KRYLOV: Picard iterate / total, KRYLOVgamma_lin, initial norm =       2    402 0.50000E-01 0.25952E-03
(PID.TID 0000.0001)  S/R SEAICE_KRYLOV: Picard iterate / total =      2 /    402, Nb. of FGMRES iterations =      1
(PID.TID 0000.0001)  S/R SEAICE_KRYLOV: Picard iterate / total, KRYLOVgamma_lin, final   norm =       3    403 0.50000E-01 0.31713E-04
(PID.TID 0000.0001)  // =======================================================
(PID.TID 0000.0001)  // Begin KRYLOV statistics
(PID.TID 0000.0001)  // =======================================================
(PID.TID 0000.0001)  %KRYLOV_MON: time step              =          5
(PID.TID 0000.0001)  %KRYLOV_MON: Nb. of time steps      =          1
(PID.TID 0000.0001)  %KRYLOV_MON: Nb. of Picard steps    =          3
(PID.TID 0000.0001)  %KRYLOV_MON: Nb. of Krylov steps    =          2
(PID.TID 0000.0001)  %KRYLOV_MON: Nb. of Picard failures =          0
(PID.TID 0000.0001)  %KRYLOV_MON: Nb. of Krylov failures =          0
(PID.TID 0000.0001)  // =======================================================
(PID.TID 0000.0001)  // End KRYLOV statistics
(PID.TID 0000.0001)  // =======================================================
(PID.TID 0000.0001)  S/R SEAICE_KRYLOV: Total number FGMRES iterations =      2 in timestep          5
(PID.TID 0000.0001) // =======================================================
(PID.TID 0000.0001) // Begin MONITOR dynamic field statistics
(PID.TID 0000.0001) // =======================================================
(PID.TID 0000.0001) %MON time_tsnumber                =                     5
(PID.TID 0000.0001) %MON time_secondsf                =   1.2500000000000E+01
(PID.TID 0000.0001) %MON dynstat_eta_max              =   0.0000000000000E+00
(PID.TID 0000.0001) %MON dynstat_eta_min              =   0.0000000000000E+00
(PID.TID 0000.0001) %MON dynstat_eta_mean             =   0.0000000000000E+00
(PID.TID 0000.0001) %MON dynstat_eta_sd               =   0.0000000000000E+00
(PID.TID 0000.0001) %MON dynstat_eta_del2             =   0.0000000000000E+00
(PID.TID 0000.0001) %MON dynstat_uvel_max             =   9.8437500000000E-03
(PID.TID 0000.0001) %MON dynstat_uvel_min             =  -9.8437500000000E-03
(PID.TID 0000.0001) %MON dynstat_uvel_mean            =   0.0000000000000E+00
(PID.TID 0000.0001) %MON dynstat_uvel_sd              =   5.7727978755972E-03
(PID.TID 0000.0001) %MON dynstat_uvel_del2            =   1.0089048364799E-20
(PID.TID 0000.0001) %MON dynstat_vvel_max             =   9.8437500000000E-03
(PID.TID 0000.0001) %MON dynstat_vvel_min             =  -9.8437500000000E-03
(PID.TID 0000.0001) %MON dynstat_vvel_mean            =   0.0000000000000E+00
(PID.TID 0000.0001) %MON dynstat_vvel_sd              =   5.7727978755972E-03
(PID.TID 0000.0001) %MON dynstat_vvel_del2            =   1.0089048364799E-20
(PID.TID 0000.0001) %MON dynstat_wvel_max             =   1.1914062500000E-05
(PID.TID 0000.0001) %MON dynstat_wvel_min             =  -1.1914062500000E-05
(PID.TID 0000.0001) %MON dynstat_wvel_mean            =   3.4694469519536E-25
(PID.TID 0000.0001) %MON dynstat_wvel_sd              =   1.7200872247780E-06
(PID.TID 0000.0001) %MON dynstat_wvel_del2            =   2.8187489626940E-08
(PID.TID 0000.0001) %MON dynstat_theta_max            =  -1.6200000000000E+00
(PID.TID 0000.0001) %MON dynstat_theta_min            =  -1.6200000000000E+00
(PID.TID 0000.0001) %MON dynstat_theta_mean           =  -1.6200000000000E+00
(PID.TID 0000.0001) %MON dynstat_theta_sd             =   0.0000000000000E+00
(PID.TID 0000.0001) %MON dynstat_theta_del2           =   0.0000000000000E+00
(PID.TID 0000.0001) %MON dynstat_salt_max             =   3.0000000000000E+01
(PID.TID 0000.0001) %MON dynstat_salt_min             =   3.0000000000000E+01
(PID.TID 0000.0001) %MON dynstat_salt_mean            =   3.0000000000000E+01
(PID.TID 0000.0001) %MON dynstat_salt_sd              =   0.0000000000000E+00
(PID.TID 0000.0001) %MON dynstat_salt_del2            =   0.0000000000000E+00
(PID.TID 0000.0001) %MON trAdv_CFL_u_max              =   3.0761718750000E-06
(PID.TID 0000.0001) %MON trAdv_CFL_v_max              =   3.0761718750000E-06
(PID.TID 0000.0001) %MON trAdv_CFL_w_max              =   2.9785156250000E-06
(PID.TID 0000.0001) %MON advcfl_uvel_max              =   3.0761718750000E-06
(PID.TID 0000.0001) %MON advcfl_vvel_max              =   3.0761718750000E-06
(PID.TID 0000.0001) %MON advcfl_wvel_max              =   5.9570312500000E-06
(PID.TID 0000.0001) %MON advcfl_W_hf_max              =   0.0000000000000E+00
(PID.TID 0000.0001) %MON pe_b_mean                    =   0.0000000000000E+00
(PID.TID 0000.0001) %MON ke_max                       =   9.0844726562500E-05
(PID.TID 0000.0001) %MON ke_mean                      =   3.2804489135742E-05
(PID.TID 0000.0001) %MON ke_vol                       =   2.6214400000000E+12
(PID.TID 0000.0001) %MON vort_r_min                   =  -7.8125000000000E-08
(PID.TID 0000.0001) %MON vort_r_max                   =   1.2304687500000E-06
(PID.TID 0000.0001) %MON vort_a_mean                  =   1.4856000000000E-04
(PID.TID 0000.0001) %MON vort_a_sd                    =   1.5312918562496E-06
(PID.TID 0000.0001) %MON vort_p_mean                  =   1.5552375000000E-04
(PID.TID 0000.0001) %MON vort_p_sd                    =   5.5921473110222E-05
(PID.TID 0000.0001) %MON surfExpan_theta_mean         =   0.0000000000000E+00
(PID.TID 0000.0001) %MON surfExpan_salt_mean          =   1.3877787807814E-23
(PID.TID 0000.0001) // =======================================================
(PID.TID 0000.0001) // End MONITOR dynamic field statistics
(PID.TID 0000.0001) // =======================================================
(PID.TID 0000.0001) // =======================================================
(PID.TID 0000.0001) // Begin MONITOR SEAICE statistics
(PID.TID 0000.0001) // =======================================================
(PID.TID 0000.0001) %MON seaice_tsnumber              =                     5
(PID.TID 0000.0001) %MON seaice_time_sec              =   1.2500000000000E+01
(PID.TID 0000.0001) %MON seaice_uice_max              =   8.7075094896523E-03
(PID.TID 0000.0001) %MON seaice_uice_min              =  -8.9051550338965E-03
(PID.TID 0000.0001) %MON seaice_uice_mean             =  -2.0313027197689E-07
(PID.TID 0000.0001) %MON seaice_uice_sd               =   3.7467420267675E-03
(PID.TID 0000.0001) %MON seaice_uice_del2             =   1.0807824342501E-06
(PID.TID 0000.0001) %MON seaice_vice_max              =   8.4976007865090E-03
(PID.TID 0000.0001) %MON seaice_vice_min              =  -8.6077807206738E-03
(PID.TID 0000.0001) %MON seaice_vice_mean             =   9.3810234011003E-07
(PID.TID 0000.0001) %MON seaice_vice_sd               =   3.7283584565893E-03
(PID.TID 0000.0001) %MON seaice_vice_del2             =   1.0805036030401E-06
(PID.TID 0000.0001) %MON seaice_area_max              =   1.0000000000000E+00
(PID.TID 0000.0001) %MON seaice_area_min              =   9.9999895129216E-01
(PID.TID 0000.0001) %MON seaice_area_mean             =   9.9999993644485E-01
(PID.TID 0000.0001) %MON seaice_area_sd               =   1.4381081738405E-07
(PID.TID 0000.0001) %MON seaice_area_del2             =   1.5265707699925E-09
(PID.TID 0000.0001) %MON seaice_heff_max              =   3.0999865630523E-01
(PID.TID 0000.0001) %MON seaice_heff_min              =   2.9006054858748E-01
(PID.TID 0000.0001) %MON seaice_heff_mean             =   3.0067126525963E-01
(PID.TID 0000.0001) %MON seaice_heff_sd               =   5.0069228790013E-03
(PID.TID 0000.0001) %MON seaice_heff_del2             =   1.2853747829034E-05
(PID.TID 0000.0001) %MON seaice_hsnow_max             =   0.0000000000000E+00
(PID.TID 0000.0001) %MON seaice_hsnow_min             =   0.0000000000000E+00
(PID.TID 0000.0001) %MON seaice_hsnow_mean            =   0.0000000000000E+00
(PID.TID 0000.0001) %MON seaice_hsnow_sd              =   0.0000000000000E+00
(PID.TID 0000.0001) %MON seaice_hsnow_del2            =   0.0000000000000E+00
(PID.TID 0000.0001) // =======================================================
(PID.TID 0000.0001) // End MONITOR SEAICE statistics
(PID.TID 0000.0001) // =======================================================
 Computing Diagnostic #    163  SIuice       Counter:       1   Parms: UU      M1      
           Vector  Mate for  SIuice       Diagnostic #    164  SIvice   exists 
 Computing Diagnostic #    164  SIvice       Counter:       1   Parms: VV      M1      
           Vector  Mate for  SIvice       Diagnostic #    163  SIuice   exists 
 Computing Diagnostic #    149  SIheff       Counter:       1   Parms: SM      M1      
 Computing Diagnostic #    146  SIarea       Counter:       1   Parms: SM      M1      
 Computing Diagnostic #    228  SIshear      Counter:       1   Parms: SM      M1      
 Computing Diagnostic #    233  SIcohes      Counter:       1   Parms: SM      M1      
 Computing Diagnostic #    221  SIsig1       Counter:       1   Parms: SM      M1      
 Computing Diagnostic #    222  SIsig2       Counter:       1   Parms: SM      M1      
 Computing Diagnostic #    231  SIdamage     Counter:       1   Parms: SM      M1      
 Computing Diagnostic #    165  SItaux       Counter:       1   Parms: UU      U1      
           Vector  Mate for  SItaux       Diagnostic #    166  SItauy   exists 
 Computing Diagnostic #    166  SItauy       Counter:       1   Parms: VV      U1      
           Vector  Mate for  SItauy       Diagnostic #    165  SItaux   exists 
 Computing Diagnostic #    133  EXFuwind     Counter:       1   Parms: UM      U1      
 Computing Diagnostic #    134  EXFvwind     Counter:       1   Parms: VM      U1      
(PID.TID 0000.0001)  S/R SEAICE_KRYLOV: Picard iterate / total, KRYLOVgamma_lin, initial norm =       1    501 0.10000E+00 0.11204E+00
(PID.TID 0000.0001)  S/R SEAICE_KRYLOV: Picard iterate / total =      1 /    501, Nb. of FGMRES iterations =      1
(PID.TID 0000.0001)  S/R SEAICE_KRYLOV: Picard iterate / total, KRYLOVgamma_lin, initial norm =       2    502 0.50000E-01 0.27073E-03
(PID.TID 0000.0001)  S/R SEAICE_KRYLOV: Picard iterate / total =      2 /    502, Nb. of FGMRES iterations =      1
(PID.TID 0000.0001)  S/R SEAICE_KRYLOV: Picard iterate / total, KRYLOVgamma_lin, final   norm =       3    503 0.50000E-01 0.29518E-04
(PID.TID 0000.0001)  // =======================================================
(PID.TID 0000.0001)  // Begin KRYLOV statistics
(PID.TID 0000.0001)  // =======================================================
(PID.TID 0000.0001)  %KRYLOV_MON: time step              =          6
(PID.TID 0000.0001)  %KRYLOV_MON: Nb. of time steps      =          1
(PID.TID 0000.0001)  %KRYLOV_MON: Nb. of Picard steps    =          3
(PID.TID 0000.0001)  %KRYLOV_MON: Nb. of Krylov steps    =          2
(PID.TID 0000.0001)  %KRYLOV_MON: Nb. of Picard failures =          0
(PID.TID 0000.0001)  %KRYLOV_MON: Nb. of Krylov failures =          0
(PID.TID 0000.0001)  // =======================================================
(PID.TID 0000.0001)  // End KRYLOV statistics
(PID.TID 0000.0001)  // =======================================================
(PID.TID 0000.0001)  S/R SEAICE_KRYLOV: Total number FGMRES iterations =      2 in timestep          6
(PID.TID 0000.0001) // =======================================================
(PID.TID 0000.0001) // Begin MONITOR dynamic field statistics
(PID.TID 0000.0001) // =======================================================
(PID.TID 0000.0001) %MON time_tsnumber                =                     6
(PID.TID 0000.0001) %MON time_secondsf                =   1.5000000000000E+01
(PID.TID 0000.0001) %MON dynstat_eta_max              =   0.0000000000000E+00
(PID.TID 0000.0001) %MON dynstat_eta_min              =   0.0000000000000E+00
(PID.TID 0000.0001) %MON dynstat_eta_mean             =   0.0000000000000E+00
(PID.TID 0000.0001) %MON dynstat_eta_sd               =   0.0000000000000E+00
(PID.TID 0000.0001) %MON dynstat_eta_del2             =   0.0000000000000E+00
(PID.TID 0000.0001) %MON dynstat_uvel_max             =   9.8437500000000E-03
(PID.TID 0000.0001) %MON dynstat_uvel_min             =  -9.8437500000000E-03
(PID.TID 0000.0001) %MON dynstat_uvel_mean            =   0.0000000000000E+00
(PID.TID 0000.0001) %MON dynstat_uvel_sd              =   5.7727978755972E-03
(PID.TID 0000.0001) %MON dynstat_uvel_del2            =   1.0089048364799E-20
(PID.TID 0000.0001) %MON dynstat_vvel_max             =   9.8437500000000E-03
(PID.TID 0000.0001) %MON dynstat_vvel_min             =  -9.8437500000000E-03
(PID.TID 0000.0001) %MON dynstat_vvel_mean            =   0.0000000000000E+00
(PID.TID 0000.0001) %MON dynstat_vvel_sd              =   5.7727978755972E-03
(PID.TID 0000.0001) %MON dynstat_vvel_del2            =   1.0089048364799E-20
(PID.TID 0000.0001) %MON dynstat_wvel_max             =   1.1914062500000E-05
(PID.TID 0000.0001) %MON dynstat_wvel_min             =  -1.1914062500000E-05
(PID.TID 0000.0001) %MON dynstat_wvel_mean            =   3.4694469519536E-25
(PID.TID 0000.0001) %MON dynstat_wvel_sd              =   1.7200872247780E-06
(PID.TID 0000.0001) %MON dynstat_wvel_del2            =   2.8187489626940E-08
(PID.TID 0000.0001) %MON dynstat_theta_max            =  -1.6200000000000E+00
(PID.TID 0000.0001) %MON dynstat_theta_min            =  -1.6200000000000E+00
(PID.TID 0000.0001) %MON dynstat_theta_mean           =  -1.6200000000000E+00
(PID.TID 0000.0001) %MON dynstat_theta_sd             =   0.0000000000000E+00
(PID.TID 0000.0001) %MON dynstat_theta_del2           =   0.0000000000000E+00
(PID.TID 0000.0001) %MON dynstat_salt_max             =   3.0000000000000E+01
(PID.TID 0000.0001) %MON dynstat_salt_min             =   3.0000000000000E+01
(PID.TID 0000.0001) %MON dynstat_salt_mean            =   3.0000000000000E+01
(PID.TID 0000.0001) %MON dynstat_salt_sd              =   0.0000000000000E+00
(PID.TID 0000.0001) %MON dynstat_salt_del2            =   0.0000000000000E+00
(PID.TID 0000.0001) %MON trAdv_CFL_u_max              =   3.0761718750000E-06
(PID.TID 0000.0001) %MON trAdv_CFL_v_max              =   3.0761718750000E-06
(PID.TID 0000.0001) %MON trAdv_CFL_w_max              =   2.9785156250000E-06
(PID.TID 0000.0001) %MON advcfl_uvel_max              =   3.0761718750000E-06
(PID.TID 0000.0001) %MON advcfl_vvel_max              =   3.0761718750000E-06
(PID.TID 0000.0001) %MON advcfl_wvel_max              =   5.9570312500000E-06
(PID.TID 0000.0001) %MON advcfl_W_hf_max              =   0.0000000000000E+00
(PID.TID 0000.0001) %MON pe_b_mean                    =   0.0000000000000E+00
(PID.TID 0000.0001) %MON ke_max                       =   9.0844726562500E-05
(PID.TID 0000.0001) %MON ke_mean                      =   3.2804489135742E-05
(PID.TID 0000.0001) %MON ke_vol                       =   2.6214400000000E+12
(PID.TID 0000.0001) %MON vort_r_min                   =  -7.8125000000000E-08
(PID.TID 0000.0001) %MON vort_r_max                   =   1.2304687500000E-06
(PID.TID 0000.0001) %MON vort_a_mean                  =   1.4856000000000E-04
(PID.TID 0000.0001) %MON vort_a_sd                    =   1.5312918562496E-06
(PID.TID 0000.0001) %MON vort_p_mean                  =   1.5552375000000E-04
(PID.TID 0000.0001) %MON vort_p_sd                    =   5.5921473110222E-05
(PID.TID 0000.0001) %MON surfExpan_theta_mean         =   0.0000000000000E+00
(PID.TID 0000.0001) %MON surfExpan_salt_mean          =   1.3877787807814E-23
(PID.TID 0000.0001) // =======================================================
(PID.TID 0000.0001) // End MONITOR dynamic field statistics
(PID.TID 0000.0001) // =======================================================
(PID.TID 0000.0001) // =======================================================
(PID.TID 0000.0001) // Begin MONITOR SEAICE statistics
(PID.TID 0000.0001) // =======================================================
(PID.TID 0000.0001) %MON seaice_tsnumber              =                     6
(PID.TID 0000.0001) %MON seaice_time_sec              =   1.5000000000000E+01
(PID.TID 0000.0001) %MON seaice_uice_max              =   1.0426171339906E-02
(PID.TID 0000.0001) %MON seaice_uice_min              =  -1.0657020716191E-02
(PID.TID 0000.0001) %MON seaice_uice_mean             =  -2.4292637712242E-07
(PID.TID 0000.0001) %MON seaice_uice_sd               =   4.4874268559228E-03
(PID.TID 0000.0001) %MON seaice_uice_del2             =   1.3172858883180E-06
(PID.TID 0000.0001) %MON seaice_vice_max              =   1.0176592617840E-02
(PID.TID 0000.0001) %MON seaice_vice_min              =  -1.0306027657785E-02
(PID.TID 0000.0001) %MON seaice_vice_mean             =   1.1298539822142E-06
(PID.TID 0000.0001) %MON seaice_vice_sd               =   4.4655018911444E-03
(PID.TID 0000.0001) %MON seaice_vice_del2             =   1.3177411494472E-06
(PID.TID 0000.0001) %MON seaice_area_max              =   1.0000000000000E+00
(PID.TID 0000.0001) %MON seaice_area_min              =   9.9999854532124E-01
(PID.TID 0000.0001) %MON seaice_area_mean             =   9.9999991129779E-01
(PID.TID 0000.0001) %MON seaice_area_sd               =   1.9858389975876E-07
(PID.TID 0000.0001) %MON seaice_area_del2             =   2.0973077661600E-09
(PID.TID 0000.0001) %MON seaice_heff_max              =   3.0999864964086E-01
(PID.TID 0000.0001) %MON seaice_heff_min              =   2.9006054169452E-01
(PID.TID 0000.0001) %MON seaice_heff_mean             =   3.0067126525963E-01
(PID.TID 0000.0001) %MON seaice_heff_sd               =   5.0069230322552E-03
(PID.TID 0000.0001) %MON seaice_heff_del2             =   1.2853747792278E-05
(PID.TID 0000.0001) %MON seaice_hsnow_max             =   0.0000000000000E+00
(PID.TID 0000.0001) %MON seaice_hsnow_min             =   0.0000000000000E+00
(PID.TID 0000.0001) %MON seaice_hsnow_mean            =   0.0000000000000E+00
(PID.TID 0000.0001) %MON seaice_hsnow_sd              =   0.0000000000000E+00
(PID.TID 0000.0001) %MON seaice_hsnow_del2            =   0.0000000000000E+00
(PID.TID 0000.0001) // =======================================================
(PID.TID 0000.0001) // End MONITOR SEAICE statistics
(PID.TID 0000.0001) // =======================================================
 Computing Diagnostic #    163  SIuice       Counter:       1   Parms: UU      M1      
           Vector  Mate for  SIuice       Diagnostic #    164  SIvice   exists 
 Computing Diagnostic #    164  SIvice       Counter:       1   Parms: VV      M1      
           Vector  Mate for  SIvice       Diagnostic #    163  SIuice   exists 
 Computing Diagnostic #    149  SIheff       Counter:       1   Parms: SM      M1      
 Computing Diagnostic #    146  SIarea       Counter:       1   Parms: SM      M1      
 Computing Diagnostic #    228  SIshear      Counter:       1   Parms: SM      M1      
 Computing Diagnostic #    233  SIcohes      Counter:       1   Parms: SM      M1      
 Computing Diagnostic #    221  SIsig1       Counter:       1   Parms: SM      M1      
 Computing Diagnostic #    222  SIsig2       Counter:       1   Parms: SM      M1      
 Computing Diagnostic #    231  SIdamage     Counter:       1   Parms: SM      M1      
 Computing Diagnostic #    165  SItaux       Counter:       1   Parms: UU      U1      
           Vector  Mate for  SItaux       Diagnostic #    166  SItauy   exists 
 Computing Diagnostic #    166  SItauy       Counter:       1   Parms: VV      U1      
           Vector  Mate for  SItauy       Diagnostic #    165  SItaux   exists 
 Computing Diagnostic #    133  EXFuwind     Counter:       1   Parms: UM      U1      
 Computing Diagnostic #    134  EXFvwind     Counter:       1   Parms: VM      U1      
(PID.TID 0000.0001)  S/R SEAICE_KRYLOV: Picard iterate / total, KRYLOVgamma_lin, initial norm =       1    601 0.10000E+00 0.11158E+00
(PID.TID 0000.0001)  S/R SEAICE_KRYLOV: Picard iterate / total =      1 /    601, Nb. of FGMRES iterations =      1
(PID.TID 0000.0001)  S/R SEAICE_KRYLOV: Picard iterate / total, KRYLOVgamma_lin, initial norm =       2    602 0.50000E-01 0.26665E-03
(PID.TID 0000.0001)  S/R SEAICE_KRYLOV: Picard iterate / total =      2 /    602, Nb. of FGMRES iterations =      1
(PID.TID 0000.0001)  S/R SEAICE_KRYLOV: Picard iterate / total, KRYLOVgamma_lin, final   norm =       3    603 0.50000E-01 0.31523E-04
(PID.TID 0000.0001)  // =======================================================
(PID.TID 0000.0001)  // Begin KRYLOV statistics
(PID.TID 0000.0001)  // =======================================================
(PID.TID 0000.0001)  %KRYLOV_MON: time step              =          7
(PID.TID 0000.0001)  %KRYLOV_MON: Nb. of time steps      =          1
(PID.TID 0000.0001)  %KRYLOV_MON: Nb. of Picard steps    =          3
(PID.TID 0000.0001)  %KRYLOV_MON: Nb. of Krylov steps    =          2
(PID.TID 0000.0001)  %KRYLOV_MON: Nb. of Picard failures =          0
(PID.TID 0000.0001)  %KRYLOV_MON: Nb. of Krylov failures =          0
(PID.TID 0000.0001)  // =======================================================
(PID.TID 0000.0001)  // End KRYLOV statistics
(PID.TID 0000.0001)  // =======================================================
(PID.TID 0000.0001)  S/R SEAICE_KRYLOV: Total number FGMRES iterations =      2 in timestep          7
(PID.TID 0000.0001) // =======================================================
(PID.TID 0000.0001) // Begin MONITOR dynamic field statistics
(PID.TID 0000.0001) // =======================================================
(PID.TID 0000.0001) %MON time_tsnumber                =                     7
(PID.TID 0000.0001) %MON time_secondsf                =   1.7500000000000E+01
(PID.TID 0000.0001) %MON dynstat_eta_max              =   0.0000000000000E+00
(PID.TID 0000.0001) %MON dynstat_eta_min              =   0.0000000000000E+00
(PID.TID 0000.0001) %MON dynstat_eta_mean             =   0.0000000000000E+00
(PID.TID 0000.0001) %MON dynstat_eta_sd               =   0.0000000000000E+00
(PID.TID 0000.0001) %MON dynstat_eta_del2             =   0.0000000000000E+00
(PID.TID 0000.0001) %MON dynstat_uvel_max             =   9.8437500000000E-03
(PID.TID 0000.0001) %MON dynstat_uvel_min             =  -9.8437500000000E-03
(PID.TID 0000.0001) %MON dynstat_uvel_mean            =   0.0000000000000E+00
(PID.TID 0000.0001) %MON dynstat_uvel_sd              =   5.7727978755972E-03
(PID.TID 0000.0001) %MON dynstat_uvel_del2            =   1.0089048364799E-20
(PID.TID 0000.0001) %MON dynstat_vvel_max             =   9.8437500000000E-03
(PID.TID 0000.0001) %MON dynstat_vvel_min             =  -9.8437500000000E-03
(PID.TID 0000.0001) %MON dynstat_vvel_mean            =   0.0000000000000E+00
(PID.TID 0000.0001) %MON dynstat_vvel_sd              =   5.7727978755972E-03
(PID.TID 0000.0001) %MON dynstat_vvel_del2            =   1.0089048364799E-20
(PID.TID 0000.0001) %MON dynstat_wvel_max             =   1.1914062500000E-05
(PID.TID 0000.0001) %MON dynstat_wvel_min             =  -1.1914062500000E-05
(PID.TID 0000.0001) %MON dynstat_wvel_mean            =   3.4694469519536E-25
(PID.TID 0000.0001) %MON dynstat_wvel_sd              =   1.7200872247780E-06
(PID.TID 0000.0001) %MON dynstat_wvel_del2            =   2.8187489626940E-08
(PID.TID 0000.0001) %MON dynstat_theta_max            =  -1.6200000000000E+00
(PID.TID 0000.0001) %MON dynstat_theta_min            =  -1.6200000000000E+00
(PID.TID 0000.0001) %MON dynstat_theta_mean           =  -1.6200000000000E+00
(PID.TID 0000.0001) %MON dynstat_theta_sd             =   0.0000000000000E+00
(PID.TID 0000.0001) %MON dynstat_theta_del2           =   0.0000000000000E+00
(PID.TID 0000.0001) %MON dynstat_salt_max             =   3.0000000000000E+01
(PID.TID 0000.0001) %MON dynstat_salt_min             =   3.0000000000000E+01
(PID.TID 0000.0001) %MON dynstat_salt_mean            =   3.0000000000000E+01
(PID.TID 0000.0001) %MON dynstat_salt_sd              =   0.0000000000000E+00
(PID.TID 0000.0001) %MON dynstat_salt_del2            =   0.0000000000000E+00
(PID.TID 0000.0001) %MON trAdv_CFL_u_max              =   3.0761718750000E-06
(PID.TID 0000.0001) %MON trAdv_CFL_v_max              =   3.0761718750000E-06
(PID.TID 0000.0001) %MON trAdv_CFL_w_max              =   2.9785156250000E-06
(PID.TID 0000.0001) %MON advcfl_uvel_max              =   3.0761718750000E-06
(PID.TID 0000.0001) %MON advcfl_vvel_max              =   3.0761718750000E-06
(PID.TID 0000.0001) %MON advcfl_wvel_max              =   5.9570312500000E-06
(PID.TID 0000.0001) %MON advcfl_W_hf_max              =   0.0000000000000E+00
(PID.TID 0000.0001) %MON pe_b_mean                    =   0.0000000000000E+00
(PID.TID 0000.0001) %MON ke_max                       =   9.0844726562500E-05
(PID.TID 0000.0001) %MON ke_mean                      =   3.2804489135742E-05
(PID.TID 0000.0001) %MON ke_vol                       =   2.6214400000000E+12
(PID.TID 0000.0001) %MON vort_r_min                   =  -7.8125000000000E-08
(PID.TID 0000.0001) %MON vort_r_max                   =   1.2304687500000E-06
(PID.TID 0000.0001) %MON vort_a_mean                  =   1.4856000000000E-04
(PID.TID 0000.0001) %MON vort_a_sd                    =   1.5312918562496E-06
(PID.TID 0000.0001) %MON vort_p_mean                  =   1.5552375000000E-04
(PID.TID 0000.0001) %MON vort_p_sd                    =   5.5921473110222E-05
(PID.TID 0000.0001) %MON surfExpan_theta_mean         =   0.0000000000000E+00
(PID.TID 0000.0001) %MON surfExpan_salt_mean          =   1.3877787807814E-23
(PID.TID 0000.0001) // =======================================================
(PID.TID 0000.0001) // End MONITOR dynamic field statistics
(PID.TID 0000.0001) // =======================================================
(PID.TID 0000.0001) // =======================================================
(PID.TID 0000.0001) // Begin MONITOR SEAICE statistics
(PID.TID 0000.0001) // =======================================================
(PID.TID 0000.0001) %MON seaice_tsnumber              =                     7
(PID.TID 0000.0001) %MON seaice_time_sec              =   1.7500000000000E+01
(PID.TID 0000.0001) %MON seaice_uice_max              =   1.2135479862488E-02
(PID.TID 0000.0001) %MON seaice_uice_min              =  -1.2396825880201E-02
(PID.TID 0000.0001) %MON seaice_uice_mean             =  -2.8016396055217E-07
(PID.TID 0000.0001) %MON seaice_uice_sd               =   5.2250524479280E-03
(PID.TID 0000.0001) %MON seaice_uice_del2             =   1.5407455768331E-06
(PID.TID 0000.0001) %MON seaice_vice_max              =   1.1847299231215E-02
(PID.TID 0000.0001) %MON seaice_vice_min              =  -1.1994658493395E-02
(PID.TID 0000.0001) %MON seaice_vice_mean             =   1.3241888344378E-06
(PID.TID 0000.0001) %MON seaice_vice_sd               =   5.1996448608880E-03
(PID.TID 0000.0001) %MON seaice_vice_del2             =   1.5420148100388E-06
(PID.TID 0000.0001) %MON seaice_area_max              =   1.0000000000000E+00
(PID.TID 0000.0001) %MON seaice_area_min              =   9.9999806359786E-01
(PID.TID 0000.0001) %MON seaice_area_mean             =   9.9999988211353E-01
(PID.TID 0000.0001) %MON seaice_area_sd               =   2.6299668037694E-07
(PID.TID 0000.0001) %MON seaice_area_del2             =   2.8482536497912E-09
(PID.TID 0000.0001) %MON seaice_heff_max              =   3.0999864189410E-01
(PID.TID 0000.0001) %MON seaice_heff_min              =   2.9006053371930E-01
(PID.TID 0000.0001) %MON seaice_heff_mean             =   3.0067126525963E-01
(PID.TID 0000.0001) %MON seaice_heff_sd               =   5.0069231997416E-03
(PID.TID 0000.0001) %MON seaice_heff_del2             =   1.2853747412250E-05
(PID.TID 0000.0001) %MON seaice_hsnow_max             =   0.0000000000000E+00
(PID.TID 0000.0001) %MON seaice_hsnow_min             =   0.0000000000000E+00
(PID.TID 0000.0001) %MON seaice_hsnow_mean            =   0.0000000000000E+00
(PID.TID 0000.0001) %MON seaice_hsnow_sd              =   0.0000000000000E+00
(PID.TID 0000.0001) %MON seaice_hsnow_del2            =   0.0000000000000E+00
(PID.TID 0000.0001) // =======================================================
(PID.TID 0000.0001) // End MONITOR SEAICE statistics
(PID.TID 0000.0001) // =======================================================
 Computing Diagnostic #    163  SIuice       Counter:       1   Parms: UU      M1      
           Vector  Mate for  SIuice       Diagnostic #    164  SIvice   exists 
 Computing Diagnostic #    164  SIvice       Counter:       1   Parms: VV      M1      
           Vector  Mate for  SIvice       Diagnostic #    163  SIuice   exists 
 Computing Diagnostic #    149  SIheff       Counter:       1   Parms: SM      M1      
 Computing Diagnostic #    146  SIarea       Counter:       1   Parms: SM      M1      
 Computing Diagnostic #    228  SIshear      Counter:       1   Parms: SM      M1      
 Computing Diagnostic #    233  SIcohes      Counter:       1   Parms: SM      M1      
 Computing Diagnostic #    221  SIsig1       Counter:       1   Parms: SM      M1      
 Computing Diagnostic #    222  SIsig2       Counter:       1   Parms: SM      M1      
 Computing Diagnostic #    231  SIdamage     Counter:       1   Parms: SM      M1      
 Computing Diagnostic #    165  SItaux       Counter:       1   Parms: UU      U1      
           Vector  Mate for  SItaux       Diagnostic #    166  SItauy   exists 
 Computing Diagnostic #    166  SItauy       Counter:       1   Parms: VV      U1      
           Vector  Mate for  SItauy       Diagnostic #    165  SItaux   exists 
 Computing Diagnostic #    133  EXFuwind     Counter:       1   Parms: UM      U1      
 Computing Diagnostic #    134  EXFvwind     Counter:       1   Parms: VM      U1      
(PID.TID 0000.0001)  S/R SEAICE_KRYLOV: Picard iterate / total, KRYLOVgamma_lin, initial norm =       1    701 0.10000E+00 0.11116E+00
(PID.TID 0000.0001)  S/R SEAICE_KRYLOV: Picard iterate / total =      1 /    701, Nb. of FGMRES iterations =      1
(PID.TID 0000.0001)  S/R SEAICE_KRYLOV: Picard iterate / total, KRYLOVgamma_lin, initial norm =       2    702 0.50000E-01 0.25201E-03
(PID.TID 0000.0001)  S/R SEAICE_KRYLOV: Picard iterate / total =      2 /    702, Nb. of FGMRES iterations =      1
(PID.TID 0000.0001)  S/R SEAICE_KRYLOV: Picard iterate / total, KRYLOVgamma_lin, final   norm =       3    703 0.50000E-01 0.28265E-04
(PID.TID 0000.0001)  // =======================================================
(PID.TID 0000.0001)  // Begin KRYLOV statistics
(PID.TID 0000.0001)  // =======================================================
(PID.TID 0000.0001)  %KRYLOV_MON: time step              =          8
(PID.TID 0000.0001)  %KRYLOV_MON: Nb. of time steps      =          1
(PID.TID 0000.0001)  %KRYLOV_MON: Nb. of Picard steps    =          3
(PID.TID 0000.0001)  %KRYLOV_MON: Nb. of Krylov steps    =          2
(PID.TID 0000.0001)  %KRYLOV_MON: Nb. of Picard failures =          0
(PID.TID 0000.0001)  %KRYLOV_MON: Nb. of Krylov failures =          0
(PID.TID 0000.0001)  // =======================================================
(PID.TID 0000.0001)  // End KRYLOV statistics
(PID.TID 0000.0001)  // =======================================================
(PID.TID 0000.0001)  S/R SEAICE_KRYLOV: Total number FGMRES iterations =      2 in timestep          8
(PID.TID 0000.0001) // =======================================================
(PID.TID 0000.0001) // Begin MONITOR dynamic field statistics
(PID.TID 0000.0001) // =======================================================
(PID.TID 0000.0001) %MON time_tsnumber                =                     8
(PID.TID 0000.0001) %MON time_secondsf                =   2.0000000000000E+01
(PID.TID 0000.0001) %MON dynstat_eta_max              =   0.0000000000000E+00
(PID.TID 0000.0001) %MON dynstat_eta_min              =   0.0000000000000E+00
(PID.TID 0000.0001) %MON dynstat_eta_mean             =   0.0000000000000E+00
(PID.TID 0000.0001) %MON dynstat_eta_sd               =   0.0000000000000E+00
(PID.TID 0000.0001) %MON dynstat_eta_del2             =   0.0000000000000E+00
(PID.TID 0000.0001) %MON dynstat_uvel_max             =   9.8437500000000E-03
(PID.TID 0000.0001) %MON dynstat_uvel_min             =  -9.8437500000000E-03
(PID.TID 0000.0001) %MON dynstat_uvel_mean            =   0.0000000000000E+00
(PID.TID 0000.0001) %MON dynstat_uvel_sd              =   5.7727978755972E-03
(PID.TID 0000.0001) %MON dynstat_uvel_del2            =   1.0089048364799E-20
(PID.TID 0000.0001) %MON dynstat_vvel_max             =   9.8437500000000E-03
(PID.TID 0000.0001) %MON dynstat_vvel_min             =  -9.8437500000000E-03
(PID.TID 0000.0001) %MON dynstat_vvel_mean            =   0.0000000000000E+00
(PID.TID 0000.0001) %MON dynstat_vvel_sd              =   5.7727978755972E-03
(PID.TID 0000.0001) %MON dynstat_vvel_del2            =   1.0089048364799E-20
(PID.TID 0000.0001) %MON dynstat_wvel_max             =   1.1914062500000E-05
(PID.TID 0000.0001) %MON dynstat_wvel_min             =  -1.1914062500000E-05
(PID.TID 0000.0001) %MON dynstat_wvel_mean            =   3.4694469519536E-25
(PID.TID 0000.0001) %MON dynstat_wvel_sd              =   1.7200872247780E-06
(PID.TID 0000.0001) %MON dynstat_wvel_del2            =   2.8187489626940E-08
(PID.TID 0000.0001) %MON dynstat_theta_max            =  -1.6200000000000E+00
(PID.TID 0000.0001) %MON dynstat_theta_min            =  -1.6200000000000E+00
(PID.TID 0000.0001) %MON dynstat_theta_mean           =  -1.6200000000000E+00
(PID.TID 0000.0001) %MON dynstat_theta_sd             =   0.0000000000000E+00
(PID.TID 0000.0001) %MON dynstat_theta_del2           =   0.0000000000000E+00
(PID.TID 0000.0001) %MON dynstat_salt_max             =   3.0000000000000E+01
(PID.TID 0000.0001) %MON dynstat_salt_min             =   3.0000000000000E+01
(PID.TID 0000.0001) %MON dynstat_salt_mean            =   3.0000000000000E+01
(PID.TID 0000.0001) %MON dynstat_salt_sd              =   0.0000000000000E+00
(PID.TID 0000.0001) %MON dynstat_salt_del2            =   0.0000000000000E+00
(PID.TID 0000.0001) %MON trAdv_CFL_u_max              =   3.0761718750000E-06
(PID.TID 0000.0001) %MON trAdv_CFL_v_max              =   3.0761718750000E-06
(PID.TID 0000.0001) %MON trAdv_CFL_w_max              =   2.9785156250000E-06
(PID.TID 0000.0001) %MON advcfl_uvel_max              =   3.0761718750000E-06
(PID.TID 0000.0001) %MON advcfl_vvel_max              =   3.0761718750000E-06
(PID.TID 0000.0001) %MON advcfl_wvel_max              =   5.9570312500000E-06
(PID.TID 0000.0001) %MON advcfl_W_hf_max              =   0.0000000000000E+00
(PID.TID 0000.0001) %MON pe_b_mean                    =   0.0000000000000E+00
(PID.TID 0000.0001) %MON ke_max                       =   9.0844726562500E-05
(PID.TID 0000.0001) %MON ke_mean                      =   3.2804489135742E-05
(PID.TID 0000.0001) %MON ke_vol                       =   2.6214400000000E+12
(PID.TID 0000.0001) %MON vort_r_min                   =  -7.8125000000000E-08
(PID.TID 0000.0001) %MON vort_r_max                   =   1.2304687500000E-06
(PID.TID 0000.0001) %MON vort_a_mean                  =   1.4856000000000E-04
(PID.TID 0000.0001) %MON vort_a_sd                    =   1.5312918562496E-06
(PID.TID 0000.0001) %MON vort_p_mean                  =   1.5552375000000E-04
(PID.TID 0000.0001) %MON vort_p_sd                    =   5.5921473110222E-05
(PID.TID 0000.0001) %MON surfExpan_theta_mean         =   0.0000000000000E+00
(PID.TID 0000.0001) %MON surfExpan_salt_mean          =   1.3877787807814E-23
(PID.TID 0000.0001) // =======================================================
(PID.TID 0000.0001) // End MONITOR dynamic field statistics
(PID.TID 0000.0001) // =======================================================
(PID.TID 0000.0001) // =======================================================
(PID.TID 0000.0001) // Begin MONITOR SEAICE statistics
(PID.TID 0000.0001) // =======================================================
(PID.TID 0000.0001) %MON seaice_tsnumber              =                     8
(PID.TID 0000.0001) %MON seaice_time_sec              =   2.0000000000000E+01
(PID.TID 0000.0001) %MON seaice_uice_max              =   1.3834775564255E-02
(PID.TID 0000.0001) %MON seaice_uice_min              =  -1.4125946466901E-02
(PID.TID 0000.0001) %MON seaice_uice_mean             =  -3.1902957141970E-07
(PID.TID 0000.0001) %MON seaice_uice_sd               =   5.9599657929868E-03
(PID.TID 0000.0001) %MON seaice_uice_del2             =   1.7593352144968E-06
(PID.TID 0000.0001) %MON seaice_vice_max              =   1.3509288813224E-02
(PID.TID 0000.0001) %MON seaice_vice_min              =  -1.3673376002032E-02
(PID.TID 0000.0001) %MON seaice_vice_mean             =   1.5249569219275E-06
(PID.TID 0000.0001) %MON seaice_vice_sd               =   5.9311260036012E-03
(PID.TID 0000.0001) %MON seaice_vice_del2             =   1.7614065988611E-06
(PID.TID 0000.0001) %MON seaice_area_max              =   1.0000000000000E+00
(PID.TID 0000.0001) %MON seaice_area_min              =   9.9999750650962E-01
(PID.TID 0000.0001) %MON seaice_area_mean             =   9.9999984892152E-01
(PID.TID 0000.0001) %MON seaice_area_sd               =   3.3739473724274E-07
(PID.TID 0000.0001) %MON seaice_area_del2             =   3.7780657739369E-09
(PID.TID 0000.0001) %MON seaice_heff_max              =   3.0999863307112E-01
(PID.TID 0000.0001) %MON seaice_heff_min              =   2.9006052460370E-01
(PID.TID 0000.0001) %MON seaice_heff_mean             =   3.0067126525963E-01
(PID.TID 0000.0001) %MON seaice_heff_sd               =   5.0069233838919E-03
(PID.TID 0000.0001) %MON seaice_heff_del2             =   1.2853746760461E-05
(PID.TID 0000.0001) %MON seaice_hsnow_max             =   0.0000000000000E+00
(PID.TID 0000.0001) %MON seaice_hsnow_min             =   0.0000000000000E+00
(PID.TID 0000.0001) %MON seaice_hsnow_mean            =   0.0000000000000E+00
(PID.TID 0000.0001) %MON seaice_hsnow_sd              =   0.0000000000000E+00
(PID.TID 0000.0001) %MON seaice_hsnow_del2            =   0.0000000000000E+00
(PID.TID 0000.0001) // =======================================================
(PID.TID 0000.0001) // End MONITOR SEAICE statistics
(PID.TID 0000.0001) // =======================================================
 Computing Diagnostic #    163  SIuice       Counter:       1   Parms: UU      M1      
           Vector  Mate for  SIuice       Diagnostic #    164  SIvice   exists 
 Computing Diagnostic #    164  SIvice       Counter:       1   Parms: VV      M1      
           Vector  Mate for  SIvice       Diagnostic #    163  SIuice   exists 
 Computing Diagnostic #    149  SIheff       Counter:       1   Parms: SM      M1      
 Computing Diagnostic #    146  SIarea       Counter:       1   Parms: SM      M1      
 Computing Diagnostic #    228  SIshear      Counter:       1   Parms: SM      M1      
 Computing Diagnostic #    233  SIcohes      Counter:       1   Parms: SM      M1      
 Computing Diagnostic #    221  SIsig1       Counter:       1   Parms: SM      M1      
 Computing Diagnostic #    222  SIsig2       Counter:       1   Parms: SM      M1      
 Computing Diagnostic #    231  SIdamage     Counter:       1   Parms: SM      M1      
 Computing Diagnostic #    165  SItaux       Counter:       1   Parms: UU      U1      
           Vector  Mate for  SItaux       Diagnostic #    166  SItauy   exists 
 Computing Diagnostic #    166  SItauy       Counter:       1   Parms: VV      U1      
           Vector  Mate for  SItauy       Diagnostic #    165  SItaux   exists 
 Computing Diagnostic #    133  EXFuwind     Counter:       1   Parms: UM      U1      
 Computing Diagnostic #    134  EXFvwind     Counter:       1   Parms: VM      U1      
(PID.TID 0000.0001)  S/R SEAICE_KRYLOV: Picard iterate / total, KRYLOVgamma_lin, initial norm =       1    801 0.10000E+00 0.11081E+00
(PID.TID 0000.0001)  S/R SEAICE_KRYLOV: Picard iterate / total =      1 /    801, Nb. of FGMRES iterations =      1
(PID.TID 0000.0001)  S/R SEAICE_KRYLOV: Picard iterate / total, KRYLOVgamma_lin, initial norm =       2    802 0.50000E-01 0.23344E-03
(PID.TID 0000.0001)  S/R SEAICE_KRYLOV: Picard iterate / total =      2 /    802, Nb. of FGMRES iterations =      1
(PID.TID 0000.0001)  S/R SEAICE_KRYLOV: Picard iterate / total, KRYLOVgamma_lin, final   norm =       3    803 0.50000E-01 0.24036E-04
(PID.TID 0000.0001)  // =======================================================
(PID.TID 0000.0001)  // Begin KRYLOV statistics
(PID.TID 0000.0001)  // =======================================================
(PID.TID 0000.0001)  %KRYLOV_MON: time step              =          9
(PID.TID 0000.0001)  %KRYLOV_MON: Nb. of time steps      =          1
(PID.TID 0000.0001)  %KRYLOV_MON: Nb. of Picard steps    =          3
(PID.TID 0000.0001)  %KRYLOV_MON: Nb. of Krylov steps    =          2
(PID.TID 0000.0001)  %KRYLOV_MON: Nb. of Picard failures =          0
(PID.TID 0000.0001)  %KRYLOV_MON: Nb. of Krylov failures =          0
(PID.TID 0000.0001)  // =======================================================
(PID.TID 0000.0001)  // End KRYLOV statistics
(PID.TID 0000.0001)  // =======================================================
(PID.TID 0000.0001)  S/R SEAICE_KRYLOV: Total number FGMRES iterations =      2 in timestep          9
(PID.TID 0000.0001) // =======================================================
(PID.TID 0000.0001) // Begin MONITOR dynamic field statistics
(PID.TID 0000.0001) // =======================================================
(PID.TID 0000.0001) %MON time_tsnumber                =                     9
(PID.TID 0000.0001) %MON time_secondsf                =   2.2500000000000E+01
(PID.TID 0000.0001) %MON dynstat_eta_max              =   0.0000000000000E+00
(PID.TID 0000.0001) %MON dynstat_eta_min              =   0.0000000000000E+00
(PID.TID 0000.0001) %MON dynstat_eta_mean             =   0.0000000000000E+00
(PID.TID 0000.0001) %MON dynstat_eta_sd               =   0.0000000000000E+00
(PID.TID 0000.0001) %MON dynstat_eta_del2             =   0.0000000000000E+00
(PID.TID 0000.0001) %MON dynstat_uvel_max             =   9.8437500000000E-03
(PID.TID 0000.0001) %MON dynstat_uvel_min             =  -9.8437500000000E-03
(PID.TID 0000.0001) %MON dynstat_uvel_mean            =   0.0000000000000E+00
(PID.TID 0000.0001) %MON dynstat_uvel_sd              =   5.7727978755972E-03
(PID.TID 0000.0001) %MON dynstat_uvel_del2            =   1.0089048364799E-20
(PID.TID 0000.0001) %MON dynstat_vvel_max             =   9.8437500000000E-03
(PID.TID 0000.0001) %MON dynstat_vvel_min             =  -9.8437500000000E-03
(PID.TID 0000.0001) %MON dynstat_vvel_mean            =   0.0000000000000E+00
(PID.TID 0000.0001) %MON dynstat_vvel_sd              =   5.7727978755972E-03
(PID.TID 0000.0001) %MON dynstat_vvel_del2            =   1.0089048364799E-20
(PID.TID 0000.0001) %MON dynstat_wvel_max             =   1.1914062500000E-05
(PID.TID 0000.0001) %MON dynstat_wvel_min             =  -1.1914062500000E-05
(PID.TID 0000.0001) %MON dynstat_wvel_mean            =   3.4694469519536E-25
(PID.TID 0000.0001) %MON dynstat_wvel_sd              =   1.7200872247780E-06
(PID.TID 0000.0001) %MON dynstat_wvel_del2            =   2.8187489626940E-08
(PID.TID 0000.0001) %MON dynstat_theta_max            =  -1.6200000000000E+00
(PID.TID 0000.0001) %MON dynstat_theta_min            =  -1.6200000000000E+00
(PID.TID 0000.0001) %MON dynstat_theta_mean           =  -1.6200000000000E+00
(PID.TID 0000.0001) %MON dynstat_theta_sd             =   0.0000000000000E+00
(PID.TID 0000.0001) %MON dynstat_theta_del2           =   0.0000000000000E+00
(PID.TID 0000.0001) %MON dynstat_salt_max             =   3.0000000000000E+01
(PID.TID 0000.0001) %MON dynstat_salt_min             =   3.0000000000000E+01
(PID.TID 0000.0001) %MON dynstat_salt_mean            =   3.0000000000000E+01
(PID.TID 0000.0001) %MON dynstat_salt_sd              =   0.0000000000000E+00
(PID.TID 0000.0001) %MON dynstat_salt_del2            =   0.0000000000000E+00
(PID.TID 0000.0001) %MON trAdv_CFL_u_max              =   3.0761718750000E-06
(PID.TID 0000.0001) %MON trAdv_CFL_v_max              =   3.0761718750000E-06
(PID.TID 0000.0001) %MON trAdv_CFL_w_max              =   2.9785156250000E-06
(PID.TID 0000.0001) %MON advcfl_uvel_max              =   3.0761718750000E-06
(PID.TID 0000.0001) %MON advcfl_vvel_max              =   3.0761718750000E-06
(PID.TID 0000.0001) %MON advcfl_wvel_max              =   5.9570312500000E-06
(PID.TID 0000.0001) %MON advcfl_W_hf_max              =   0.0000000000000E+00
(PID.TID 0000.0001) %MON pe_b_mean                    =   0.0000000000000E+00
(PID.TID 0000.0001) %MON ke_max                       =   9.0844726562500E-05
(PID.TID 0000.0001) %MON ke_mean                      =   3.2804489135742E-05
(PID.TID 0000.0001) %MON ke_vol                       =   2.6214400000000E+12
(PID.TID 0000.0001) %MON vort_r_min                   =  -7.8125000000000E-08
(PID.TID 0000.0001) %MON vort_r_max                   =   1.2304687500000E-06
(PID.TID 0000.0001) %MON vort_a_mean                  =   1.4856000000000E-04
(PID.TID 0000.0001) %MON vort_a_sd                    =   1.5312918562496E-06
(PID.TID 0000.0001) %MON vort_p_mean                  =   1.5552375000000E-04
(PID.TID 0000.0001) %MON vort_p_sd                    =   5.5921473110222E-05
(PID.TID 0000.0001) %MON surfExpan_theta_mean         =   0.0000000000000E+00
(PID.TID 0000.0001) %MON surfExpan_salt_mean          =   1.3877787807814E-23
(PID.TID 0000.0001) // =======================================================
(PID.TID 0000.0001) // End MONITOR dynamic field statistics
(PID.TID 0000.0001) // =======================================================
(PID.TID 0000.0001) // =======================================================
(PID.TID 0000.0001) // Begin MONITOR SEAICE statistics
(PID.TID 0000.0001) // =======================================================
(PID.TID 0000.0001) %MON seaice_tsnumber              =                     9
(PID.TID 0000.0001) %MON seaice_time_sec              =   2.2500000000000E+01
(PID.TID 0000.0001) %MON seaice_uice_max              =   1.5525303697557E-02
(PID.TID 0000.0001) %MON seaice_uice_min              =  -1.5855018199825E-02
(PID.TID 0000.0001) %MON seaice_uice_mean             =  -3.6155655194560E-07
(PID.TID 0000.0001) %MON seaice_uice_sd               =   6.6925604059756E-03
(PID.TID 0000.0001) %MON seaice_uice_del2             =   1.9747836209762E-06
(PID.TID 0000.0001) %MON seaice_vice_max              =   1.5165146501793E-02
(PID.TID 0000.0001) %MON seaice_vice_min              =  -1.5348833712853E-02
(PID.TID 0000.0001) %MON seaice_vice_mean             =   1.7318925618597E-06
(PID.TID 0000.0001) %MON seaice_vice_sd               =   6.6603312416216E-03
(PID.TID 0000.0001) %MON seaice_vice_del2             =   1.9775823879062E-06
(PID.TID 0000.0001) %MON seaice_area_max              =   1.0000000000000E+00
(PID.TID 0000.0001) %MON seaice_area_min              =   9.9999687446298E-01
(PID.TID 0000.0001) %MON seaice_area_mean             =   9.9999981173168E-01
(PID.TID 0000.0001) %MON seaice_area_sd               =   4.2188459163455E-07
(PID.TID 0000.0001) %MON seaice_area_del2             =   4.8572416659074E-09
(PID.TID 0000.0001) %MON seaice_heff_max              =   3.0999862316954E-01
(PID.TID 0000.0001) %MON seaice_heff_min              =   2.9006051436931E-01
(PID.TID 0000.0001) %MON seaice_heff_mean             =   3.0067126525963E-01
(PID.TID 0000.0001) %MON seaice_heff_sd               =   5.0069235857522E-03
(PID.TID 0000.0001) %MON seaice_heff_del2             =   1.2853745953662E-05
(PID.TID 0000.0001) %MON seaice_hsnow_max             =   0.0000000000000E+00
(PID.TID 0000.0001) %MON seaice_hsnow_min             =   0.0000000000000E+00
(PID.TID 0000.0001) %MON seaice_hsnow_mean            =   0.0000000000000E+00
(PID.TID 0000.0001) %MON seaice_hsnow_sd              =   0.0000000000000E+00
(PID.TID 0000.0001) %MON seaice_hsnow_del2            =   0.0000000000000E+00
(PID.TID 0000.0001) // =======================================================
(PID.TID 0000.0001) // End MONITOR SEAICE statistics
(PID.TID 0000.0001) // =======================================================
 Computing Diagnostic #    163  SIuice       Counter:       1   Parms: UU      M1      
           Vector  Mate for  SIuice       Diagnostic #    164  SIvice   exists 
 Computing Diagnostic #    164  SIvice       Counter:       1   Parms: VV      M1      
           Vector  Mate for  SIvice       Diagnostic #    163  SIuice   exists 
 Computing Diagnostic #    149  SIheff       Counter:       1   Parms: SM      M1      
 Computing Diagnostic #    146  SIarea       Counter:       1   Parms: SM      M1      
 Computing Diagnostic #    228  SIshear      Counter:       1   Parms: SM      M1      
 Computing Diagnostic #    233  SIcohes      Counter:       1   Parms: SM      M1      
 Computing Diagnostic #    221  SIsig1       Counter:       1   Parms: SM      M1      
 Computing Diagnostic #    222  SIsig2       Counter:       1   Parms: SM      M1      
 Computing Diagnostic #    231  SIdamage     Counter:       1   Parms: SM      M1      
 Computing Diagnostic #    165  SItaux       Counter:       1   Parms: UU      U1      
           Vector  Mate for  SItaux       Diagnostic #    166  SItauy   exists 
 Computing Diagnostic #    166  SItauy       Counter:       1   Parms: VV      U1      
           Vector  Mate for  SItauy       Diagnostic #    165  SItaux   exists 
 Computing Diagnostic #    133  EXFuwind     Counter:       1   Parms: UM      U1      
 Computing Diagnostic #    134  EXFvwind     Counter:       1   Parms: VM      U1      
(PID.TID 0000.0001)  S/R SEAICE_KRYLOV: Picard iterate / total, KRYLOVgamma_lin, initial norm =       1    901 0.10000E+00 0.11048E+00
(PID.TID 0000.0001)  S/R SEAICE_KRYLOV: Picard iterate / total =      1 /    901, Nb. of FGMRES iterations =      1
(PID.TID 0000.0001)  S/R SEAICE_KRYLOV: Picard iterate / total, KRYLOVgamma_lin, initial norm =       2    902 0.50000E-01 0.21616E-03
(PID.TID 0000.0001)  S/R SEAICE_KRYLOV: Picard iterate / total =      2 /    902, Nb. of FGMRES iterations =      1
(PID.TID 0000.0001)  S/R SEAICE_KRYLOV: Picard iterate / total, KRYLOVgamma_lin, final   norm =       3    903 0.50000E-01 0.20980E-04
(PID.TID 0000.0001)  // =======================================================
(PID.TID 0000.0001)  // Begin KRYLOV statistics
(PID.TID 0000.0001)  // =======================================================
(PID.TID 0000.0001)  %KRYLOV_MON: time step              =         10
(PID.TID 0000.0001)  %KRYLOV_MON: Nb. of time steps      =          1
(PID.TID 0000.0001)  %KRYLOV_MON: Nb. of Picard steps    =          3
(PID.TID 0000.0001)  %KRYLOV_MON: Nb. of Krylov steps    =          2
(PID.TID 0000.0001)  %KRYLOV_MON: Nb. of Picard failures =          0
(PID.TID 0000.0001)  %KRYLOV_MON: Nb. of Krylov failures =          0
(PID.TID 0000.0001)  // =======================================================
(PID.TID 0000.0001)  // End KRYLOV statistics
(PID.TID 0000.0001)  // =======================================================
(PID.TID 0000.0001)  S/R SEAICE_KRYLOV: Total number FGMRES iterations =      2 in timestep         10
(PID.TID 0000.0001) // =======================================================
(PID.TID 0000.0001) // Begin MONITOR dynamic field statistics
(PID.TID 0000.0001) // =======================================================
(PID.TID 0000.0001) %MON time_tsnumber                =                    10
(PID.TID 0000.0001) %MON time_secondsf                =   2.5000000000000E+01
(PID.TID 0000.0001) %MON dynstat_eta_max              =   0.0000000000000E+00
(PID.TID 0000.0001) %MON dynstat_eta_min              =   0.0000000000000E+00
(PID.TID 0000.0001) %MON dynstat_eta_mean             =   0.0000000000000E+00
(PID.TID 0000.0001) %MON dynstat_eta_sd               =   0.0000000000000E+00
(PID.TID 0000.0001) %MON dynstat_eta_del2             =   0.0000000000000E+00
(PID.TID 0000.0001) %MON dynstat_uvel_max             =   9.8437500000000E-03
(PID.TID 0000.0001) %MON dynstat_uvel_min             =  -9.8437500000000E-03
(PID.TID 0000.0001) %MON dynstat_uvel_mean            =   0.0000000000000E+00
(PID.TID 0000.0001) %MON dynstat_uvel_sd              =   5.7727978755972E-03
(PID.TID 0000.0001) %MON dynstat_uvel_del2            =   1.0089048364799E-20
(PID.TID 0000.0001) %MON dynstat_vvel_max             =   9.8437500000000E-03
(PID.TID 0000.0001) %MON dynstat_vvel_min             =  -9.8437500000000E-03
(PID.TID 0000.0001) %MON dynstat_vvel_mean            =   0.0000000000000E+00
(PID.TID 0000.0001) %MON dynstat_vvel_sd              =   5.7727978755972E-03
(PID.TID 0000.0001) %MON dynstat_vvel_del2            =   1.0089048364799E-20
(PID.TID 0000.0001) %MON dynstat_wvel_max             =   1.1914062500000E-05
(PID.TID 0000.0001) %MON dynstat_wvel_min             =  -1.1914062500000E-05
(PID.TID 0000.0001) %MON dynstat_wvel_mean            =   3.4694469519536E-25
(PID.TID 0000.0001) %MON dynstat_wvel_sd              =   1.7200872247780E-06
(PID.TID 0000.0001) %MON dynstat_wvel_del2            =   2.8187489626940E-08
(PID.TID 0000.0001) %MON dynstat_theta_max            =  -1.6200000000000E+00
(PID.TID 0000.0001) %MON dynstat_theta_min            =  -1.6200000000000E+00
(PID.TID 0000.0001) %MON dynstat_theta_mean           =  -1.6200000000000E+00
(PID.TID 0000.0001) %MON dynstat_theta_sd             =   0.0000000000000E+00
(PID.TID 0000.0001) %MON dynstat_theta_del2           =   0.0000000000000E+00
(PID.TID 0000.0001) %MON dynstat_salt_max             =   3.0000000000000E+01
(PID.TID 0000.0001) %MON dynstat_salt_min             =   3.0000000000000E+01
(PID.TID 0000.0001) %MON dynstat_salt_mean            =   3.0000000000000E+01
(PID.TID 0000.0001) %MON dynstat_salt_sd              =   0.0000000000000E+00
(PID.TID 0000.0001) %MON dynstat_salt_del2            =   0.0000000000000E+00
(PID.TID 0000.0001) %MON trAdv_CFL_u_max              =   3.0761718750000E-06
(PID.TID 0000.0001) %MON trAdv_CFL_v_max              =   3.0761718750000E-06
(PID.TID 0000.0001) %MON trAdv_CFL_w_max              =   2.9785156250000E-06
(PID.TID 0000.0001) %MON advcfl_uvel_max              =   3.0761718750000E-06
(PID.TID 0000.0001) %MON advcfl_vvel_max              =   3.0761718750000E-06
(PID.TID 0000.0001) %MON advcfl_wvel_max              =   5.9570312500000E-06
(PID.TID 0000.0001) %MON advcfl_W_hf_max              =   0.0000000000000E+00
(PID.TID 0000.0001) %MON pe_b_mean                    =   0.0000000000000E+00
(PID.TID 0000.0001) %MON ke_max                       =   9.0844726562500E-05
(PID.TID 0000.0001) %MON ke_mean                      =   3.2804489135742E-05
(PID.TID 0000.0001) %MON ke_vol                       =   2.6214400000000E+12
(PID.TID 0000.0001) %MON vort_r_min                   =  -7.8125000000000E-08
(PID.TID 0000.0001) %MON vort_r_max                   =   1.2304687500000E-06
(PID.TID 0000.0001) %MON vort_a_mean                  =   1.4856000000000E-04
(PID.TID 0000.0001) %MON vort_a_sd                    =   1.5312918562496E-06
(PID.TID 0000.0001) %MON vort_p_mean                  =   1.5552375000000E-04
(PID.TID 0000.0001) %MON vort_p_sd                    =   5.5921473110222E-05
(PID.TID 0000.0001) %MON surfExpan_theta_mean         =   0.0000000000000E+00
(PID.TID 0000.0001) %MON surfExpan_salt_mean          =   1.3877787807814E-23
(PID.TID 0000.0001) // =======================================================
(PID.TID 0000.0001) // End MONITOR dynamic field statistics
(PID.TID 0000.0001) // =======================================================
(PID.TID 0000.0001) // =======================================================
(PID.TID 0000.0001) // Begin MONITOR SEAICE statistics
(PID.TID 0000.0001) // =======================================================
(PID.TID 0000.0001) %MON seaice_tsnumber              =                    10
(PID.TID 0000.0001) %MON seaice_time_sec              =   2.5000000000000E+01
(PID.TID 0000.0001) %MON seaice_uice_max              =   1.7220227654934E-02
(PID.TID 0000.0001) %MON seaice_uice_min              =  -1.7586023171612E-02
(PID.TID 0000.0001) %MON seaice_uice_mean             =  -4.0684768635209E-07
(PID.TID 0000.0001) %MON seaice_uice_sd               =   7.4230081459244E-03
(PID.TID 0000.0001) %MON seaice_uice_del2             =   2.1849258707378E-06
(PID.TID 0000.0001) %MON seaice_vice_max              =   1.6824321285044E-02
(PID.TID 0000.0001) %MON seaice_vice_min              =  -1.7028587282488E-02
(PID.TID 0000.0001) %MON seaice_vice_mean             =   1.9385172947946E-06
(PID.TID 0000.0001) %MON seaice_vice_sd               =   7.3874260858707E-03
(PID.TID 0000.0001) %MON seaice_vice_del2             =   2.1889425618341E-06
(PID.TID 0000.0001) %MON seaice_area_max              =   1.0000000000000E+00
(PID.TID 0000.0001) %MON seaice_area_min              =   9.9999616769304E-01
(PID.TID 0000.0001) %MON seaice_area_mean             =   9.9999977054390E-01
(PID.TID 0000.0001) %MON seaice_area_sd               =   5.1648257629455E-07
(PID.TID 0000.0001) %MON seaice_area_del2             =   6.0740699786229E-09
(PID.TID 0000.0001) %MON seaice_heff_max              =   3.0999861219134E-01
(PID.TID 0000.0001) %MON seaice_heff_min              =   2.9006050301871E-01
(PID.TID 0000.0001) %MON seaice_heff_mean             =   3.0067126525963E-01
(PID.TID 0000.0001) %MON seaice_heff_sd               =   5.0069238031472E-03
(PID.TID 0000.0001) %MON seaice_heff_del2             =   1.2853745062229E-05
(PID.TID 0000.0001) %MON seaice_hsnow_max             =   0.0000000000000E+00
(PID.TID 0000.0001) %MON seaice_hsnow_min             =   0.0000000000000E+00
(PID.TID 0000.0001) %MON seaice_hsnow_mean            =   0.0000000000000E+00
(PID.TID 0000.0001) %MON seaice_hsnow_sd              =   0.0000000000000E+00
(PID.TID 0000.0001) %MON seaice_hsnow_del2            =   0.0000000000000E+00
(PID.TID 0000.0001) // =======================================================
(PID.TID 0000.0001) // End MONITOR SEAICE statistics
(PID.TID 0000.0001) // =======================================================
 Computing Diagnostic #    163  SIuice       Counter:       1   Parms: UU      M1      
           Vector  Mate for  SIuice       Diagnostic #    164  SIvice   exists 
 Computing Diagnostic #    164  SIvice       Counter:       1   Parms: VV      M1      
           Vector  Mate for  SIvice       Diagnostic #    163  SIuice   exists 
 Computing Diagnostic #    149  SIheff       Counter:       1   Parms: SM      M1      
 Computing Diagnostic #    146  SIarea       Counter:       1   Parms: SM      M1      
 Computing Diagnostic #    228  SIshear      Counter:       1   Parms: SM      M1      
 Computing Diagnostic #    233  SIcohes      Counter:       1   Parms: SM      M1      
 Computing Diagnostic #    221  SIsig1       Counter:       1   Parms: SM      M1      
 Computing Diagnostic #    222  SIsig2       Counter:       1   Parms: SM      M1      
 Computing Diagnostic #    231  SIdamage     Counter:       1   Parms: SM      M1      
 Computing Diagnostic #    165  SItaux       Counter:       1   Parms: UU      U1      
           Vector  Mate for  SItaux       Diagnostic #    166  SItauy   exists 
 Computing Diagnostic #    166  SItauy       Counter:       1   Parms: VV      U1      
           Vector  Mate for  SItauy       Diagnostic #    165  SItaux   exists 
 Computing Diagnostic #    133  EXFuwind     Counter:       1   Parms: UM      U1      
 Computing Diagnostic #    134  EXFvwind     Counter:       1   Parms: VM      U1      
(PID.TID 0000.0001)  S/R SEAICE_KRYLOV: Picard iterate / total, KRYLOVgamma_lin, initial norm =       1   1001 0.10000E+00 0.11017E+00
(PID.TID 0000.0001)  S/R SEAICE_KRYLOV: Picard iterate / total =      1 /   1001, Nb. of FGMRES iterations =      1
(PID.TID 0000.0001)  S/R SEAICE_KRYLOV: Picard iterate / total, KRYLOVgamma_lin, initial norm =       2   1002 0.50000E-01 0.20016E-03
(PID.TID 0000.0001)  S/R SEAICE_KRYLOV: Picard iterate / total =      2 /   1002, Nb. of FGMRES iterations =      1
(PID.TID 0000.0001)  S/R SEAICE_KRYLOV: Picard iterate / total, KRYLOVgamma_lin, final   norm =       3   1003 0.50000E-01 0.19444E-04
(PID.TID 0000.0001)  // =======================================================
(PID.TID 0000.0001)  // Begin KRYLOV statistics
(PID.TID 0000.0001)  // =======================================================
(PID.TID 0000.0001)  %KRYLOV_MON: time step              =         11
(PID.TID 0000.0001)  %KRYLOV_MON: Nb. of time steps      =          1
(PID.TID 0000.0001)  %KRYLOV_MON: Nb. of Picard steps    =          3
(PID.TID 0000.0001)  %KRYLOV_MON: Nb. of Krylov steps    =          2
(PID.TID 0000.0001)  %KRYLOV_MON: Nb. of Picard failures =          0
(PID.TID 0000.0001)  %KRYLOV_MON: Nb. of Krylov failures =          0
(PID.TID 0000.0001)  // =======================================================
(PID.TID 0000.0001)  // End KRYLOV statistics
(PID.TID 0000.0001)  // =======================================================
(PID.TID 0000.0001)  S/R SEAICE_KRYLOV: Total number FGMRES iterations =      2 in timestep         11
(PID.TID 0000.0001) // =======================================================
(PID.TID 0000.0001) // Begin MONITOR dynamic field statistics
(PID.TID 0000.0001) // =======================================================
(PID.TID 0000.0001) %MON time_tsnumber                =                    11
(PID.TID 0000.0001) %MON time_secondsf                =   2.7500000000000E+01
(PID.TID 0000.0001) %MON dynstat_eta_max              =   0.0000000000000E+00
(PID.TID 0000.0001) %MON dynstat_eta_min              =   0.0000000000000E+00
(PID.TID 0000.0001) %MON dynstat_eta_mean             =   0.0000000000000E+00
(PID.TID 0000.0001) %MON dynstat_eta_sd               =   0.0000000000000E+00
(PID.TID 0000.0001) %MON dynstat_eta_del2             =   0.0000000000000E+00
(PID.TID 0000.0001) %MON dynstat_uvel_max             =   9.8437500000000E-03
(PID.TID 0000.0001) %MON dynstat_uvel_min             =  -9.8437500000000E-03
(PID.TID 0000.0001) %MON dynstat_uvel_mean            =   0.0000000000000E+00
(PID.TID 0000.0001) %MON dynstat_uvel_sd              =   5.7727978755972E-03
(PID.TID 0000.0001) %MON dynstat_uvel_del2            =   1.0089048364799E-20
(PID.TID 0000.0001) %MON dynstat_vvel_max             =   9.8437500000000E-03
(PID.TID 0000.0001) %MON dynstat_vvel_min             =  -9.8437500000000E-03
(PID.TID 0000.0001) %MON dynstat_vvel_mean            =   0.0000000000000E+00
(PID.TID 0000.0001) %MON dynstat_vvel_sd              =   5.7727978755972E-03
(PID.TID 0000.0001) %MON dynstat_vvel_del2            =   1.0089048364799E-20
(PID.TID 0000.0001) %MON dynstat_wvel_max             =   1.1914062500000E-05
(PID.TID 0000.0001) %MON dynstat_wvel_min             =  -1.1914062500000E-05
(PID.TID 0000.0001) %MON dynstat_wvel_mean            =   3.4694469519536E-25
(PID.TID 0000.0001) %MON dynstat_wvel_sd              =   1.7200872247780E-06
(PID.TID 0000.0001) %MON dynstat_wvel_del2            =   2.8187489626940E-08
(PID.TID 0000.0001) %MON dynstat_theta_max            =  -1.6200000000000E+00
(PID.TID 0000.0001) %MON dynstat_theta_min            =  -1.6200000000000E+00
(PID.TID 0000.0001) %MON dynstat_theta_mean           =  -1.6200000000000E+00
(PID.TID 0000.0001) %MON dynstat_theta_sd             =   0.0000000000000E+00
(PID.TID 0000.0001) %MON dynstat_theta_del2           =   0.0000000000000E+00
(PID.TID 0000.0001) %MON dynstat_salt_max             =   3.0000000000000E+01
(PID.TID 0000.0001) %MON dynstat_salt_min             =   3.0000000000000E+01
(PID.TID 0000.0001) %MON dynstat_salt_mean            =   3.0000000000000E+01
(PID.TID 0000.0001) %MON dynstat_salt_sd              =   0.0000000000000E+00
(PID.TID 0000.0001) %MON dynstat_salt_del2            =   0.0000000000000E+00
(PID.TID 0000.0001) %MON trAdv_CFL_u_max              =   3.0761718750000E-06
(PID.TID 0000.0001) %MON trAdv_CFL_v_max              =   3.0761718750000E-06
(PID.TID 0000.0001) %MON trAdv_CFL_w_max              =   2.9785156250000E-06
(PID.TID 0000.0001) %MON advcfl_uvel_max              =   3.0761718750000E-06
(PID.TID 0000.0001) %MON advcfl_vvel_max              =   3.0761718750000E-06
(PID.TID 0000.0001) %MON advcfl_wvel_max              =   5.9570312500000E-06
(PID.TID 0000.0001) %MON advcfl_W_hf_max              =   0.0000000000000E+00
(PID.TID 0000.0001) %MON pe_b_mean                    =   0.0000000000000E+00
(PID.TID 0000.0001) %MON ke_max                       =   9.0844726562500E-05
(PID.TID 0000.0001) %MON ke_mean                      =   3.2804489135742E-05
(PID.TID 0000.0001) %MON ke_vol                       =   2.6214400000000E+12
(PID.TID 0000.0001) %MON vort_r_min                   =  -7.8125000000000E-08
(PID.TID 0000.0001) %MON vort_r_max                   =   1.2304687500000E-06
(PID.TID 0000.0001) %MON vort_a_mean                  =   1.4856000000000E-04
(PID.TID 0000.0001) %MON vort_a_sd                    =   1.5312918562496E-06
(PID.TID 0000.0001) %MON vort_p_mean                  =   1.5552375000000E-04
(PID.TID 0000.0001) %MON vort_p_sd                    =   5.5921473110222E-05
(PID.TID 0000.0001) %MON surfExpan_theta_mean         =   0.0000000000000E+00
(PID.TID 0000.0001) %MON surfExpan_salt_mean          =   1.3877787807814E-23
(PID.TID 0000.0001) // =======================================================
(PID.TID 0000.0001) // End MONITOR dynamic field statistics
(PID.TID 0000.0001) // =======================================================
(PID.TID 0000.0001) // =======================================================
(PID.TID 0000.0001) // Begin MONITOR SEAICE statistics
(PID.TID 0000.0001) // =======================================================
(PID.TID 0000.0001) %MON seaice_tsnumber              =                    11
(PID.TID 0000.0001) %MON seaice_time_sec              =   2.7500000000000E+01
(PID.TID 0000.0001) %MON seaice_uice_max              =   1.8927260039586E-02
(PID.TID 0000.0001) %MON seaice_uice_min              =  -1.9312851835914E-02
(PID.TID 0000.0001) %MON seaice_uice_mean             =  -4.5466851234062E-07
(PID.TID 0000.0001) %MON seaice_uice_sd               =   8.1513821481308E-03
(PID.TID 0000.0001) %MON seaice_uice_del2             =   2.3904789370668E-06
(PID.TID 0000.0001) %MON seaice_vice_max              =   1.8484269425165E-02
(PID.TID 0000.0001) %MON seaice_vice_min              =  -1.8714768957363E-02
(PID.TID 0000.0001) %MON seaice_vice_mean             =   2.1435234560823E-06
(PID.TID 0000.0001) %MON seaice_vice_sd               =   8.1124821724989E-03
(PID.TID 0000.0001) %MON seaice_vice_del2             =   2.3952436414205E-06
(PID.TID 0000.0001) %MON seaice_area_max              =   1.0000000000000E+00
(PID.TID 0000.0001) %MON seaice_area_min              =   9.9999538630944E-01
(PID.TID 0000.0001) %MON seaice_area_mean             =   9.9999972535411E-01
(PID.TID 0000.0001) %MON seaice_area_sd               =   6.2117917039374E-07
(PID.TID 0000.0001) %MON seaice_area_del2             =   7.4233060375369E-09
(PID.TID 0000.0001) %MON seaice_heff_max              =   3.0999860013492E-01
(PID.TID 0000.0001) %MON seaice_heff_min              =   2.9006049055430E-01
(PID.TID 0000.0001) %MON seaice_heff_mean             =   3.0067126525963E-01
(PID.TID 0000.0001) %MON seaice_heff_sd               =   5.0069240326159E-03
(PID.TID 0000.0001) %MON seaice_heff_del2             =   1.2853744130496E-05
(PID.TID 0000.0001) %MON seaice_hsnow_max             =   0.0000000000000E+00
(PID.TID 0000.0001) %MON seaice_hsnow_min             =   0.0000000000000E+00
(PID.TID 0000.0001) %MON seaice_hsnow_mean            =   0.0000000000000E+00
(PID.TID 0000.0001) %MON seaice_hsnow_sd              =   0.0000000000000E+00
(PID.TID 0000.0001) %MON seaice_hsnow_del2            =   0.0000000000000E+00
(PID.TID 0000.0001) // =======================================================
(PID.TID 0000.0001) // End MONITOR SEAICE statistics
(PID.TID 0000.0001) // =======================================================
 Computing Diagnostic #    163  SIuice       Counter:       1   Parms: UU      M1      
           Vector  Mate for  SIuice       Diagnostic #    164  SIvice   exists 
 Computing Diagnostic #    164  SIvice       Counter:       1   Parms: VV      M1      
           Vector  Mate for  SIvice       Diagnostic #    163  SIuice   exists 
 Computing Diagnostic #    149  SIheff       Counter:       1   Parms: SM      M1      
 Computing Diagnostic #    146  SIarea       Counter:       1   Parms: SM      M1      
 Computing Diagnostic #    228  SIshear      Counter:       1   Parms: SM      M1      
 Computing Diagnostic #    233  SIcohes      Counter:       1   Parms: SM      M1      
 Computing Diagnostic #    221  SIsig1       Counter:       1   Parms: SM      M1      
 Computing Diagnostic #    222  SIsig2       Counter:       1   Parms: SM      M1      
 Computing Diagnostic #    231  SIdamage     Counter:       1   Parms: SM      M1      
 Computing Diagnostic #    165  SItaux       Counter:       1   Parms: UU      U1      
           Vector  Mate for  SItaux       Diagnostic #    166  SItauy   exists 
 Computing Diagnostic #    166  SItauy       Counter:       1   Parms: VV      U1      
           Vector  Mate for  SItauy       Diagnostic #    165  SItaux   exists 
 Computing Diagnostic #    133  EXFuwind     Counter:       1   Parms: UM      U1      
 Computing Diagnostic #    134  EXFvwind     Counter:       1   Parms: VM      U1      
(PID.TID 0000.0001)  S/R SEAICE_KRYLOV: Picard iterate / total, KRYLOVgamma_lin, initial norm =       1   1101 0.10000E+00 0.10987E+00
(PID.TID 0000.0001)  S/R SEAICE_KRYLOV: Picard iterate / total =      1 /   1101, Nb. of FGMRES iterations =      1
(PID.TID 0000.0001)  S/R SEAICE_KRYLOV: Picard iterate / total, KRYLOVgamma_lin, initial norm =       2   1102 0.50000E-01 0.18547E-03
(PID.TID 0000.0001)  S/R SEAICE_KRYLOV: Picard iterate / total =      2 /   1102, Nb. of FGMRES iterations =      1
(PID.TID 0000.0001)  S/R SEAICE_KRYLOV: Picard iterate / total, KRYLOVgamma_lin, final   norm =       3   1103 0.50000E-01 0.19543E-04
(PID.TID 0000.0001)  // =======================================================
(PID.TID 0000.0001)  // Begin KRYLOV statistics
(PID.TID 0000.0001)  // =======================================================
(PID.TID 0000.0001)  %KRYLOV_MON: time step              =         12
(PID.TID 0000.0001)  %KRYLOV_MON: Nb. of time steps      =          1
(PID.TID 0000.0001)  %KRYLOV_MON: Nb. of Picard steps    =          3
(PID.TID 0000.0001)  %KRYLOV_MON: Nb. of Krylov steps    =          2
(PID.TID 0000.0001)  %KRYLOV_MON: Nb. of Picard failures =          0
(PID.TID 0000.0001)  %KRYLOV_MON: Nb. of Krylov failures =          0
(PID.TID 0000.0001)  // =======================================================
(PID.TID 0000.0001)  // End KRYLOV statistics
(PID.TID 0000.0001)  // =======================================================
(PID.TID 0000.0001)  S/R SEAICE_KRYLOV: Total number FGMRES iterations =      2 in timestep         12
(PID.TID 0000.0001) // =======================================================
(PID.TID 0000.0001) // Begin MONITOR dynamic field statistics
(PID.TID 0000.0001) // =======================================================
(PID.TID 0000.0001) %MON time_tsnumber                =                    12
(PID.TID 0000.0001) %MON time_secondsf                =   3.0000000000000E+01
(PID.TID 0000.0001) %MON dynstat_eta_max              =   0.0000000000000E+00
(PID.TID 0000.0001) %MON dynstat_eta_min              =   0.0000000000000E+00
(PID.TID 0000.0001) %MON dynstat_eta_mean             =   0.0000000000000E+00
(PID.TID 0000.0001) %MON dynstat_eta_sd               =   0.0000000000000E+00
(PID.TID 0000.0001) %MON dynstat_eta_del2             =   0.0000000000000E+00
(PID.TID 0000.0001) %MON dynstat_uvel_max             =   9.8437500000000E-03
(PID.TID 0000.0001) %MON dynstat_uvel_min             =  -9.8437500000000E-03
(PID.TID 0000.0001) %MON dynstat_uvel_mean            =   0.0000000000000E+00
(PID.TID 0000.0001) %MON dynstat_uvel_sd              =   5.7727978755972E-03
(PID.TID 0000.0001) %MON dynstat_uvel_del2            =   1.0089048364799E-20
(PID.TID 0000.0001) %MON dynstat_vvel_max             =   9.8437500000000E-03
(PID.TID 0000.0001) %MON dynstat_vvel_min             =  -9.8437500000000E-03
(PID.TID 0000.0001) %MON dynstat_vvel_mean            =   0.0000000000000E+00
(PID.TID 0000.0001) %MON dynstat_vvel_sd              =   5.7727978755972E-03
(PID.TID 0000.0001) %MON dynstat_vvel_del2            =   1.0089048364799E-20
(PID.TID 0000.0001) %MON dynstat_wvel_max             =   1.1914062500000E-05
(PID.TID 0000.0001) %MON dynstat_wvel_min             =  -1.1914062500000E-05
(PID.TID 0000.0001) %MON dynstat_wvel_mean            =   3.4694469519536E-25
(PID.TID 0000.0001) %MON dynstat_wvel_sd              =   1.7200872247780E-06
(PID.TID 0000.0001) %MON dynstat_wvel_del2            =   2.8187489626940E-08
(PID.TID 0000.0001) %MON dynstat_theta_max            =  -1.6200000000000E+00
(PID.TID 0000.0001) %MON dynstat_theta_min            =  -1.6200000000000E+00
(PID.TID 0000.0001) %MON dynstat_theta_mean           =  -1.6200000000000E+00
(PID.TID 0000.0001) %MON dynstat_theta_sd             =   0.0000000000000E+00
(PID.TID 0000.0001) %MON dynstat_theta_del2           =   0.0000000000000E+00
(PID.TID 0000.0001) %MON dynstat_salt_max             =   3.0000000000000E+01
(PID.TID 0000.0001) %MON dynstat_salt_min             =   3.0000000000000E+01
(PID.TID 0000.0001) %MON dynstat_salt_mean            =   3.0000000000000E+01
(PID.TID 0000.0001) %MON dynstat_salt_sd              =   0.0000000000000E+00
(PID.TID 0000.0001) %MON dynstat_salt_del2            =   0.0000000000000E+00
(PID.TID 0000.0001) %MON trAdv_CFL_u_max              =   3.0761718750000E-06
(PID.TID 0000.0001) %MON trAdv_CFL_v_max              =   3.0761718750000E-06
(PID.TID 0000.0001) %MON trAdv_CFL_w_max              =   2.9785156250000E-06
(PID.TID 0000.0001) %MON advcfl_uvel_max              =   3.0761718750000E-06
(PID.TID 0000.0001) %MON advcfl_vvel_max              =   3.0761718750000E-06
(PID.TID 0000.0001) %MON advcfl_wvel_max              =   5.9570312500000E-06
(PID.TID 0000.0001) %MON advcfl_W_hf_max              =   0.0000000000000E+00
(PID.TID 0000.0001) %MON pe_b_mean                    =   0.0000000000000E+00
(PID.TID 0000.0001) %MON ke_max                       =   9.0844726562500E-05
(PID.TID 0000.0001) %MON ke_mean                      =   3.2804489135742E-05
(PID.TID 0000.0001) %MON ke_vol                       =   2.6214400000000E+12
(PID.TID 0000.0001) %MON vort_r_min                   =  -7.8125000000000E-08
(PID.TID 0000.0001) %MON vort_r_max                   =   1.2304687500000E-06
(PID.TID 0000.0001) %MON vort_a_mean                  =   1.4856000000000E-04
(PID.TID 0000.0001) %MON vort_a_sd                    =   1.5312918562496E-06
(PID.TID 0000.0001) %MON vort_p_mean                  =   1.5552375000000E-04
(PID.TID 0000.0001) %MON vort_p_sd                    =   5.5921473110222E-05
(PID.TID 0000.0001) %MON surfExpan_theta_mean         =   0.0000000000000E+00
(PID.TID 0000.0001) %MON surfExpan_salt_mean          =   1.3877787807814E-23
(PID.TID 0000.0001) // =======================================================
(PID.TID 0000.0001) // End MONITOR dynamic field statistics
(PID.TID 0000.0001) // =======================================================
(PID.TID 0000.0001) // =======================================================
(PID.TID 0000.0001) // Begin MONITOR SEAICE statistics
(PID.TID 0000.0001) // =======================================================
(PID.TID 0000.0001) %MON seaice_tsnumber              =                    12
(PID.TID 0000.0001) %MON seaice_time_sec              =   3.0000000000000E+01
(PID.TID 0000.0001) %MON seaice_uice_max              =   2.0629708272286E-02
(PID.TID 0000.0001) %MON seaice_uice_min              =  -2.1035628941823E-02
(PID.TID 0000.0001) %MON seaice_uice_mean             =  -5.0441377207911E-07
(PID.TID 0000.0001) %MON seaice_uice_sd               =   8.8777200998993E-03
(PID.TID 0000.0001) %MON seaice_uice_del2             =   2.5931126534378E-06
(PID.TID 0000.0001) %MON seaice_vice_max              =   2.0140310435807E-02
(PID.TID 0000.0001) %MON seaice_vice_min              =  -2.0398482347935E-02
(PID.TID 0000.0001) %MON seaice_vice_mean             =   2.3460759862656E-06
(PID.TID 0000.0001) %MON seaice_vice_sd               =   8.8355310356489E-03
(PID.TID 0000.0001) %MON seaice_vice_del2             =   2.5980175060964E-06
(PID.TID 0000.0001) %MON seaice_area_max              =   1.0000000000000E+00
(PID.TID 0000.0001) %MON seaice_area_min              =   9.9999453033672E-01
(PID.TID 0000.0001) %MON seaice_area_mean             =   9.9999967615004E-01
(PID.TID 0000.0001) %MON seaice_area_sd               =   7.3595982880535E-07
(PID.TID 0000.0001) %MON seaice_area_del2             =   8.9035621380891E-09
(PID.TID 0000.0001) %MON seaice_heff_max              =   3.0999858699798E-01
(PID.TID 0000.0001) %MON seaice_heff_min              =   2.9006047697865E-01
(PID.TID 0000.0001) %MON seaice_heff_mean             =   3.0067126525963E-01
(PID.TID 0000.0001) %MON seaice_heff_sd               =   5.0069242698739E-03
(PID.TID 0000.0001) %MON seaice_heff_del2             =   1.2853743165766E-05
(PID.TID 0000.0001) %MON seaice_hsnow_max             =   0.0000000000000E+00
(PID.TID 0000.0001) %MON seaice_hsnow_min             =   0.0000000000000E+00
(PID.TID 0000.0001) %MON seaice_hsnow_mean            =   0.0000000000000E+00
(PID.TID 0000.0001) %MON seaice_hsnow_sd              =   0.0000000000000E+00
(PID.TID 0000.0001) %MON seaice_hsnow_del2            =   0.0000000000000E+00
(PID.TID 0000.0001) // =======================================================
(PID.TID 0000.0001) // End MONITOR SEAICE statistics
(PID.TID 0000.0001) // =======================================================
 Computing Diagnostic #    163  SIuice       Counter:       1   Parms: UU      M1      
           Vector  Mate for  SIuice       Diagnostic #    164  SIvice   exists 
 Computing Diagnostic #    164  SIvice       Counter:       1   Parms: VV      M1      
           Vector  Mate for  SIvice       Diagnostic #    163  SIuice   exists 
 Computing Diagnostic #    149  SIheff       Counter:       1   Parms: SM      M1      
 Computing Diagnostic #    146  SIarea       Counter:       1   Parms: SM      M1      
 Computing Diagnostic #    228  SIshear      Counter:       1   Parms: SM      M1      
 Computing Diagnostic #    233  SIcohes      Counter:       1   Parms: SM      M1      
 Computing Diagnostic #    221  SIsig1       Counter:       1   Parms: SM      M1      
 Computing Diagnostic #    222  SIsig2       Counter:       1   Parms: SM      M1      
 Computing Diagnostic #    231  SIdamage     Counter:       1   Parms: SM      M1      
 Computing Diagnostic #    165  SItaux       Counter:       1   Parms: UU      U1      
           Vector  Mate for  SItaux       Diagnostic #    166  SItauy   exists 
 Computing Diagnostic #    166  SItauy       Counter:       1   Parms: VV      U1      
           Vector  Mate for  SItauy       Diagnostic #    165  SItaux   exists 
 Computing Diagnostic #    133  EXFuwind     Counter:       1   Parms: UM      U1      
 Computing Diagnostic #    134  EXFvwind     Counter:       1   Parms: VM      U1      
(PID.TID 0000.0001)  S/R SEAICE_KRYLOV: Picard iterate / total, KRYLOVgamma_lin, initial norm =       1   1201 0.10000E+00 0.10956E+00
(PID.TID 0000.0001)  S/R SEAICE_KRYLOV: Picard iterate / total =      1 /   1201, Nb. of FGMRES iterations =      1
(PID.TID 0000.0001)  S/R SEAICE_KRYLOV: Picard iterate / total, KRYLOVgamma_lin, initial norm =       2   1202 0.50000E-01 0.17343E-03
(PID.TID 0000.0001)  S/R SEAICE_KRYLOV: Picard iterate / total =      2 /   1202, Nb. of FGMRES iterations =      1
(PID.TID 0000.0001)  S/R SEAICE_KRYLOV: Picard iterate / total, KRYLOVgamma_lin, final   norm =       3   1203 0.50000E-01 0.21436E-04
(PID.TID 0000.0001)  // =======================================================
(PID.TID 0000.0001)  // Begin KRYLOV statistics
(PID.TID 0000.0001)  // =======================================================
(PID.TID 0000.0001)  %KRYLOV_MON: time step              =         13
(PID.TID 0000.0001)  %KRYLOV_MON: Nb. of time steps      =          1
(PID.TID 0000.0001)  %KRYLOV_MON: Nb. of Picard steps    =          3
(PID.TID 0000.0001)  %KRYLOV_MON: Nb. of Krylov steps    =          2
(PID.TID 0000.0001)  %KRYLOV_MON: Nb. of Picard failures =          0
(PID.TID 0000.0001)  %KRYLOV_MON: Nb. of Krylov failures =          0
(PID.TID 0000.0001)  // =======================================================
(PID.TID 0000.0001)  // End KRYLOV statistics
(PID.TID 0000.0001)  // =======================================================
(PID.TID 0000.0001)  S/R SEAICE_KRYLOV: Total number FGMRES iterations =      2 in timestep         13
(PID.TID 0000.0001) // =======================================================
(PID.TID 0000.0001) // Begin MONITOR dynamic field statistics
(PID.TID 0000.0001) // =======================================================
(PID.TID 0000.0001) %MON time_tsnumber                =                    13
(PID.TID 0000.0001) %MON time_secondsf                =   3.2500000000000E+01
(PID.TID 0000.0001) %MON dynstat_eta_max              =   0.0000000000000E+00
(PID.TID 0000.0001) %MON dynstat_eta_min              =   0.0000000000000E+00
(PID.TID 0000.0001) %MON dynstat_eta_mean             =   0.0000000000000E+00
(PID.TID 0000.0001) %MON dynstat_eta_sd               =   0.0000000000000E+00
(PID.TID 0000.0001) %MON dynstat_eta_del2             =   0.0000000000000E+00
(PID.TID 0000.0001) %MON dynstat_uvel_max             =   9.8437500000000E-03
(PID.TID 0000.0001) %MON dynstat_uvel_min             =  -9.8437500000000E-03
(PID.TID 0000.0001) %MON dynstat_uvel_mean            =   0.0000000000000E+00
(PID.TID 0000.0001) %MON dynstat_uvel_sd              =   5.7727978755972E-03
(PID.TID 0000.0001) %MON dynstat_uvel_del2            =   1.0089048364799E-20
(PID.TID 0000.0001) %MON dynstat_vvel_max             =   9.8437500000000E-03
(PID.TID 0000.0001) %MON dynstat_vvel_min             =  -9.8437500000000E-03
(PID.TID 0000.0001) %MON dynstat_vvel_mean            =   0.0000000000000E+00
(PID.TID 0000.0001) %MON dynstat_vvel_sd              =   5.7727978755972E-03
(PID.TID 0000.0001) %MON dynstat_vvel_del2            =   1.0089048364799E-20
(PID.TID 0000.0001) %MON dynstat_wvel_max             =   1.1914062500000E-05
(PID.TID 0000.0001) %MON dynstat_wvel_min             =  -1.1914062500000E-05
(PID.TID 0000.0001) %MON dynstat_wvel_mean            =   3.4694469519536E-25
(PID.TID 0000.0001) %MON dynstat_wvel_sd              =   1.7200872247780E-06
(PID.TID 0000.0001) %MON dynstat_wvel_del2            =   2.8187489626940E-08
(PID.TID 0000.0001) %MON dynstat_theta_max            =  -1.6200000000000E+00
(PID.TID 0000.0001) %MON dynstat_theta_min            =  -1.6200000000000E+00
(PID.TID 0000.0001) %MON dynstat_theta_mean           =  -1.6200000000000E+00
(PID.TID 0000.0001) %MON dynstat_theta_sd             =   0.0000000000000E+00
(PID.TID 0000.0001) %MON dynstat_theta_del2           =   0.0000000000000E+00
(PID.TID 0000.0001) %MON dynstat_salt_max             =   3.0000000000000E+01
(PID.TID 0000.0001) %MON dynstat_salt_min             =   3.0000000000000E+01
(PID.TID 0000.0001) %MON dynstat_salt_mean            =   3.0000000000000E+01
(PID.TID 0000.0001) %MON dynstat_salt_sd              =   0.0000000000000E+00
(PID.TID 0000.0001) %MON dynstat_salt_del2            =   0.0000000000000E+00
(PID.TID 0000.0001) %MON trAdv_CFL_u_max              =   3.0761718750000E-06
(PID.TID 0000.0001) %MON trAdv_CFL_v_max              =   3.0761718750000E-06
(PID.TID 0000.0001) %MON trAdv_CFL_w_max              =   2.9785156250000E-06
(PID.TID 0000.0001) %MON advcfl_uvel_max              =   3.0761718750000E-06
(PID.TID 0000.0001) %MON advcfl_vvel_max              =   3.0761718750000E-06
(PID.TID 0000.0001) %MON advcfl_wvel_max              =   5.9570312500000E-06
(PID.TID 0000.0001) %MON advcfl_W_hf_max              =   0.0000000000000E+00
(PID.TID 0000.0001) %MON pe_b_mean                    =   0.0000000000000E+00
(PID.TID 0000.0001) %MON ke_max                       =   9.0844726562500E-05
(PID.TID 0000.0001) %MON ke_mean                      =   3.2804489135742E-05
(PID.TID 0000.0001) %MON ke_vol                       =   2.6214400000000E+12
(PID.TID 0000.0001) %MON vort_r_min                   =  -7.8125000000000E-08
(PID.TID 0000.0001) %MON vort_r_max                   =   1.2304687500000E-06
(PID.TID 0000.0001) %MON vort_a_mean                  =   1.4856000000000E-04
(PID.TID 0000.0001) %MON vort_a_sd                    =   1.5312918562496E-06
(PID.TID 0000.0001) %MON vort_p_mean                  =   1.5552375000000E-04
(PID.TID 0000.0001) %MON vort_p_sd                    =   5.5921473110222E-05
(PID.TID 0000.0001) %MON surfExpan_theta_mean         =   0.0000000000000E+00
(PID.TID 0000.0001) %MON surfExpan_salt_mean          =   1.3877787807814E-23
(PID.TID 0000.0001) // =======================================================
(PID.TID 0000.0001) // End MONITOR dynamic field statistics
(PID.TID 0000.0001) // =======================================================
(PID.TID 0000.0001) // =======================================================
(PID.TID 0000.0001) // Begin MONITOR SEAICE statistics
(PID.TID 0000.0001) // =======================================================
(PID.TID 0000.0001) %MON seaice_tsnumber              =                    13
(PID.TID 0000.0001) %MON seaice_time_sec              =   3.2500000000000E+01
(PID.TID 0000.0001) %MON seaice_uice_max              =   2.2328142515328E-02
(PID.TID 0000.0001) %MON seaice_uice_min              =  -2.2754722858711E-02
(PID.TID 0000.0001) %MON seaice_uice_mean             =  -5.5576377250824E-07
(PID.TID 0000.0001) %MON seaice_uice_sd               =   9.6020471719774E-03
(PID.TID 0000.0001) %MON seaice_uice_del2             =   2.7938080458678E-06
(PID.TID 0000.0001) %MON seaice_vice_max              =   2.1792847301740E-02
(PID.TID 0000.0001) %MON seaice_vice_min              =  -2.2077123200068E-02
(PID.TID 0000.0001) %MON seaice_vice_mean             =   2.5458535107916E-06
(PID.TID 0000.0001) %MON seaice_vice_sd               =   9.5565937921256E-03
(PID.TID 0000.0001) %MON seaice_vice_del2             =   2.7991962164526E-06
(PID.TID 0000.0001) %MON seaice_area_max              =   1.0000000000000E+00
(PID.TID 0000.0001) %MON seaice_area_min              =   9.9999359974713E-01
(PID.TID 0000.0001) %MON seaice_area_mean             =   9.9999962293904E-01
(PID.TID 0000.0001) %MON seaice_area_sd               =   8.6082117688421E-07
(PID.TID 0000.0001) %MON seaice_area_del2             =   1.0515767359317E-08
(PID.TID 0000.0001) %MON seaice_heff_max              =   3.0999857277816E-01
(PID.TID 0000.0001) %MON seaice_heff_min              =   2.9006046229458E-01
(PID.TID 0000.0001) %MON seaice_heff_mean             =   3.0067126525963E-01
(PID.TID 0000.0001) %MON seaice_heff_sd               =   5.0069245091886E-03
(PID.TID 0000.0001) %MON seaice_heff_del2             =   1.2853742146706E-05
(PID.TID 0000.0001) %MON seaice_hsnow_max             =   0.0000000000000E+00
(PID.TID 0000.0001) %MON seaice_hsnow_min             =   0.0000000000000E+00
(PID.TID 0000.0001) %MON seaice_hsnow_mean            =   0.0000000000000E+00
(PID.TID 0000.0001) %MON seaice_hsnow_sd              =   0.0000000000000E+00
(PID.TID 0000.0001) %MON seaice_hsnow_del2            =   0.0000000000000E+00
(PID.TID 0000.0001) // =======================================================
(PID.TID 0000.0001) // End MONITOR SEAICE statistics
(PID.TID 0000.0001) // =======================================================
 Computing Diagnostic #    163  SIuice       Counter:       1   Parms: UU      M1      
           Vector  Mate for  SIuice       Diagnostic #    164  SIvice   exists 
 Computing Diagnostic #    164  SIvice       Counter:       1   Parms: VV      M1      
           Vector  Mate for  SIvice       Diagnostic #    163  SIuice   exists 
 Computing Diagnostic #    149  SIheff       Counter:       1   Parms: SM      M1      
 Computing Diagnostic #    146  SIarea       Counter:       1   Parms: SM      M1      
 Computing Diagnostic #    228  SIshear      Counter:       1   Parms: SM      M1      
 Computing Diagnostic #    233  SIcohes      Counter:       1   Parms: SM      M1      
 Computing Diagnostic #    221  SIsig1       Counter:       1   Parms: SM      M1      
 Computing Diagnostic #    222  SIsig2       Counter:       1   Parms: SM      M1      
 Computing Diagnostic #    231  SIdamage     Counter:       1   Parms: SM      M1      
 Computing Diagnostic #    165  SItaux       Counter:       1   Parms: UU      U1      
           Vector  Mate for  SItaux       Diagnostic #    166  SItauy   exists 
 Computing Diagnostic #    166  SItauy       Counter:       1   Parms: VV      U1      
           Vector  Mate for  SItauy       Diagnostic #    165  SItaux   exists 
 Computing Diagnostic #    133  EXFuwind     Counter:       1   Parms: UM      U1      
 Computing Diagnostic #    134  EXFvwind     Counter:       1   Parms: VM      U1      
(PID.TID 0000.0001)  S/R SEAICE_KRYLOV: Picard iterate / total, KRYLOVgamma_lin, initial norm =       1   1301 0.10000E+00 0.10927E+00
(PID.TID 0000.0001)  S/R SEAICE_KRYLOV: Picard iterate / total =      1 /   1301, Nb. of FGMRES iterations =      1
(PID.TID 0000.0001)  S/R SEAICE_KRYLOV: Picard iterate / total, KRYLOVgamma_lin, initial norm =       2   1302 0.50000E-01 0.16412E-03
(PID.TID 0000.0001)  S/R SEAICE_KRYLOV: Picard iterate / total =      2 /   1302, Nb. of FGMRES iterations =      1
(PID.TID 0000.0001)  S/R SEAICE_KRYLOV: Picard iterate / total, KRYLOVgamma_lin, final   norm =       3   1303 0.50000E-01 0.25645E-04
(PID.TID 0000.0001)  // =======================================================
(PID.TID 0000.0001)  // Begin KRYLOV statistics
(PID.TID 0000.0001)  // =======================================================
(PID.TID 0000.0001)  %KRYLOV_MON: time step              =         14
(PID.TID 0000.0001)  %KRYLOV_MON: Nb. of time steps      =          1
(PID.TID 0000.0001)  %KRYLOV_MON: Nb. of Picard steps    =          3
(PID.TID 0000.0001)  %KRYLOV_MON: Nb. of Krylov steps    =          2
(PID.TID 0000.0001)  %KRYLOV_MON: Nb. of Picard failures =          0
(PID.TID 0000.0001)  %KRYLOV_MON: Nb. of Krylov failures =          0
(PID.TID 0000.0001)  // =======================================================
(PID.TID 0000.0001)  // End KRYLOV statistics
(PID.TID 0000.0001)  // =======================================================
(PID.TID 0000.0001)  S/R SEAICE_KRYLOV: Total number FGMRES iterations =      2 in timestep         14
(PID.TID 0000.0001) // =======================================================
(PID.TID 0000.0001) // Begin MONITOR dynamic field statistics
(PID.TID 0000.0001) // =======================================================
(PID.TID 0000.0001) %MON time_tsnumber                =                    14
(PID.TID 0000.0001) %MON time_secondsf                =   3.5000000000000E+01
(PID.TID 0000.0001) %MON dynstat_eta_max              =   0.0000000000000E+00
(PID.TID 0000.0001) %MON dynstat_eta_min              =   0.0000000000000E+00
(PID.TID 0000.0001) %MON dynstat_eta_mean             =   0.0000000000000E+00
(PID.TID 0000.0001) %MON dynstat_eta_sd               =   0.0000000000000E+00
(PID.TID 0000.0001) %MON dynstat_eta_del2             =   0.0000000000000E+00
(PID.TID 0000.0001) %MON dynstat_uvel_max             =   9.8437500000000E-03
(PID.TID 0000.0001) %MON dynstat_uvel_min             =  -9.8437500000000E-03
(PID.TID 0000.0001) %MON dynstat_uvel_mean            =   0.0000000000000E+00
(PID.TID 0000.0001) %MON dynstat_uvel_sd              =   5.7727978755972E-03
(PID.TID 0000.0001) %MON dynstat_uvel_del2            =   1.0089048364799E-20
(PID.TID 0000.0001) %MON dynstat_vvel_max             =   9.8437500000000E-03
(PID.TID 0000.0001) %MON dynstat_vvel_min             =  -9.8437500000000E-03
(PID.TID 0000.0001) %MON dynstat_vvel_mean            =   0.0000000000000E+00
(PID.TID 0000.0001) %MON dynstat_vvel_sd              =   5.7727978755972E-03
(PID.TID 0000.0001) %MON dynstat_vvel_del2            =   1.0089048364799E-20
(PID.TID 0000.0001) %MON dynstat_wvel_max             =   1.1914062500000E-05
(PID.TID 0000.0001) %MON dynstat_wvel_min             =  -1.1914062500000E-05
(PID.TID 0000.0001) %MON dynstat_wvel_mean            =   3.4694469519536E-25
(PID.TID 0000.0001) %MON dynstat_wvel_sd              =   1.7200872247780E-06
(PID.TID 0000.0001) %MON dynstat_wvel_del2            =   2.8187489626940E-08
(PID.TID 0000.0001) %MON dynstat_theta_max            =  -1.6200000000000E+00
(PID.TID 0000.0001) %MON dynstat_theta_min            =  -1.6200000000000E+00
(PID.TID 0000.0001) %MON dynstat_theta_mean           =  -1.6200000000000E+00
(PID.TID 0000.0001) %MON dynstat_theta_sd             =   0.0000000000000E+00
(PID.TID 0000.0001) %MON dynstat_theta_del2           =   0.0000000000000E+00
(PID.TID 0000.0001) %MON dynstat_salt_max             =   3.0000000000000E+01
(PID.TID 0000.0001) %MON dynstat_salt_min             =   3.0000000000000E+01
(PID.TID 0000.0001) %MON dynstat_salt_mean            =   3.0000000000000E+01
(PID.TID 0000.0001) %MON dynstat_salt_sd              =   0.0000000000000E+00
(PID.TID 0000.0001) %MON dynstat_salt_del2            =   0.0000000000000E+00
(PID.TID 0000.0001) %MON trAdv_CFL_u_max              =   3.0761718750000E-06
(PID.TID 0000.0001) %MON trAdv_CFL_v_max              =   3.0761718750000E-06
(PID.TID 0000.0001) %MON trAdv_CFL_w_max              =   2.9785156250000E-06
(PID.TID 0000.0001) %MON advcfl_uvel_max              =   3.0761718750000E-06
(PID.TID 0000.0001) %MON advcfl_vvel_max              =   3.0761718750000E-06
(PID.TID 0000.0001) %MON advcfl_wvel_max              =   5.9570312500000E-06
(PID.TID 0000.0001) %MON advcfl_W_hf_max              =   0.0000000000000E+00
(PID.TID 0000.0001) %MON pe_b_mean                    =   0.0000000000000E+00
(PID.TID 0000.0001) %MON ke_max                       =   9.0844726562500E-05
(PID.TID 0000.0001) %MON ke_mean                      =   3.2804489135742E-05
(PID.TID 0000.0001) %MON ke_vol                       =   2.6214400000000E+12
(PID.TID 0000.0001) %MON vort_r_min                   =  -7.8125000000000E-08
(PID.TID 0000.0001) %MON vort_r_max                   =   1.2304687500000E-06
(PID.TID 0000.0001) %MON vort_a_mean                  =   1.4856000000000E-04
(PID.TID 0000.0001) %MON vort_a_sd                    =   1.5312918562496E-06
(PID.TID 0000.0001) %MON vort_p_mean                  =   1.5552375000000E-04
(PID.TID 0000.0001) %MON vort_p_sd                    =   5.5921473110222E-05
(PID.TID 0000.0001) %MON surfExpan_theta_mean         =   0.0000000000000E+00
(PID.TID 0000.0001) %MON surfExpan_salt_mean          =   1.3877787807814E-23
(PID.TID 0000.0001) // =======================================================
(PID.TID 0000.0001) // End MONITOR dynamic field statistics
(PID.TID 0000.0001) // =======================================================
(PID.TID 0000.0001) // =======================================================
(PID.TID 0000.0001) // Begin MONITOR SEAICE statistics
(PID.TID 0000.0001) // =======================================================
(PID.TID 0000.0001) %MON seaice_tsnumber              =                    14
(PID.TID 0000.0001) %MON seaice_time_sec              =   3.5000000000000E+01
(PID.TID 0000.0001) %MON seaice_uice_max              =   2.4022900623405E-02
(PID.TID 0000.0001) %MON seaice_uice_min              =  -2.4470294953858E-02
(PID.TID 0000.0001) %MON seaice_uice_mean             =  -6.0842559958930E-07
(PID.TID 0000.0001) %MON seaice_uice_sd               =   1.0324374068908E-02
(PID.TID 0000.0001) %MON seaice_uice_del2             =   2.9958879440269E-06
(PID.TID 0000.0001) %MON seaice_vice_max              =   2.3442103848422E-02
(PID.TID 0000.0001) %MON seaice_vice_min              =  -2.3751764238803E-02
(PID.TID 0000.0001) %MON seaice_vice_mean             =   2.7428310237327E-06
(PID.TID 0000.0001) %MON seaice_vice_sd               =   1.0275683517268E-02
(PID.TID 0000.0001) %MON seaice_vice_del2             =   3.0011801937404E-06
(PID.TID 0000.0001) %MON seaice_area_max              =   1.0000000000000E+00
(PID.TID 0000.0001) %MON seaice_area_min              =   9.9999259448569E-01
(PID.TID 0000.0001) %MON seaice_area_mean             =   9.9999956574738E-01
(PID.TID 0000.0001) %MON seaice_area_sd               =   9.9577156555463E-07
(PID.TID 0000.0001) %MON seaice_area_del2             =   1.2261255585080E-08
(PID.TID 0000.0001) %MON seaice_heff_max              =   3.0999855747355E-01
(PID.TID 0000.0001) %MON seaice_heff_min              =   2.9006044650516E-01
(PID.TID 0000.0001) %MON seaice_heff_mean             =   3.0067126525963E-01
(PID.TID 0000.0001) %MON seaice_heff_sd               =   5.0069247439853E-03
(PID.TID 0000.0001) %MON seaice_heff_del2             =   1.2853741061815E-05
(PID.TID 0000.0001) %MON seaice_hsnow_max             =   0.0000000000000E+00
(PID.TID 0000.0001) %MON seaice_hsnow_min             =   0.0000000000000E+00
(PID.TID 0000.0001) %MON seaice_hsnow_mean            =   0.0000000000000E+00
(PID.TID 0000.0001) %MON seaice_hsnow_sd              =   0.0000000000000E+00
(PID.TID 0000.0001) %MON seaice_hsnow_del2            =   0.0000000000000E+00
(PID.TID 0000.0001) // =======================================================
(PID.TID 0000.0001) // End MONITOR SEAICE statistics
(PID.TID 0000.0001) // =======================================================
 Computing Diagnostic #    163  SIuice       Counter:       1   Parms: UU      M1      
           Vector  Mate for  SIuice       Diagnostic #    164  SIvice   exists 
 Computing Diagnostic #    164  SIvice       Counter:       1   Parms: VV      M1      
           Vector  Mate for  SIvice       Diagnostic #    163  SIuice   exists 
 Computing Diagnostic #    149  SIheff       Counter:       1   Parms: SM      M1      
 Computing Diagnostic #    146  SIarea       Counter:       1   Parms: SM      M1      
 Computing Diagnostic #    228  SIshear      Counter:       1   Parms: SM      M1      
 Computing Diagnostic #    233  SIcohes      Counter:       1   Parms: SM      M1      
 Computing Diagnostic #    221  SIsig1       Counter:       1   Parms: SM      M1      
 Computing Diagnostic #    222  SIsig2       Counter:       1   Parms: SM      M1      
 Computing Diagnostic #    231  SIdamage     Counter:       1   Parms: SM      M1      
 Computing Diagnostic #    165  SItaux       Counter:       1   Parms: UU      U1      
           Vector  Mate for  SItaux       Diagnostic #    166  SItauy   exists 
 Computing Diagnostic #    166  SItauy       Counter:       1   Parms: VV      U1      
           Vector  Mate for  SItauy       Diagnostic #    165  SItaux   exists 
 Computing Diagnostic #    133  EXFuwind     Counter:       1   Parms: UM      U1      
 Computing Diagnostic #    134  EXFvwind     Counter:       1   Parms: VM      U1      
(PID.TID 0000.0001)  S/R SEAICE_KRYLOV: Picard iterate / total, KRYLOVgamma_lin, initial norm =       1   1401 0.10000E+00 0.10897E+00
(PID.TID 0000.0001)  S/R SEAICE_KRYLOV: Picard iterate / total =      1 /   1401, Nb. of FGMRES iterations =      1
(PID.TID 0000.0001)  S/R SEAICE_KRYLOV: Picard iterate / total, KRYLOVgamma_lin, initial norm =       2   1402 0.50000E-01 0.15454E-03
(PID.TID 0000.0001)  S/R SEAICE_KRYLOV: Picard iterate / total =      2 /   1402, Nb. of FGMRES iterations =      1
(PID.TID 0000.0001)  S/R SEAICE_KRYLOV: Picard iterate / total, KRYLOVgamma_lin, final   norm =       3   1403 0.50000E-01 0.27933E-04
(PID.TID 0000.0001)  // =======================================================
(PID.TID 0000.0001)  // Begin KRYLOV statistics
(PID.TID 0000.0001)  // =======================================================
(PID.TID 0000.0001)  %KRYLOV_MON: time step              =         15
(PID.TID 0000.0001)  %KRYLOV_MON: Nb. of time steps      =          1
(PID.TID 0000.0001)  %KRYLOV_MON: Nb. of Picard steps    =          3
(PID.TID 0000.0001)  %KRYLOV_MON: Nb. of Krylov steps    =          2
(PID.TID 0000.0001)  %KRYLOV_MON: Nb. of Picard failures =          0
(PID.TID 0000.0001)  %KRYLOV_MON: Nb. of Krylov failures =          0
(PID.TID 0000.0001)  // =======================================================
(PID.TID 0000.0001)  // End KRYLOV statistics
(PID.TID 0000.0001)  // =======================================================
(PID.TID 0000.0001)  S/R SEAICE_KRYLOV: Total number FGMRES iterations =      2 in timestep         15
(PID.TID 0000.0001) // =======================================================
(PID.TID 0000.0001) // Begin MONITOR dynamic field statistics
(PID.TID 0000.0001) // =======================================================
(PID.TID 0000.0001) %MON time_tsnumber                =                    15
(PID.TID 0000.0001) %MON time_secondsf                =   3.7500000000000E+01
(PID.TID 0000.0001) %MON dynstat_eta_max              =   0.0000000000000E+00
(PID.TID 0000.0001) %MON dynstat_eta_min              =   0.0000000000000E+00
(PID.TID 0000.0001) %MON dynstat_eta_mean             =   0.0000000000000E+00
(PID.TID 0000.0001) %MON dynstat_eta_sd               =   0.0000000000000E+00
(PID.TID 0000.0001) %MON dynstat_eta_del2             =   0.0000000000000E+00
(PID.TID 0000.0001) %MON dynstat_uvel_max             =   9.8437500000000E-03
(PID.TID 0000.0001) %MON dynstat_uvel_min             =  -9.8437500000000E-03
(PID.TID 0000.0001) %MON dynstat_uvel_mean            =   0.0000000000000E+00
(PID.TID 0000.0001) %MON dynstat_uvel_sd              =   5.7727978755972E-03
(PID.TID 0000.0001) %MON dynstat_uvel_del2            =   1.0089048364799E-20
(PID.TID 0000.0001) %MON dynstat_vvel_max             =   9.8437500000000E-03
(PID.TID 0000.0001) %MON dynstat_vvel_min             =  -9.8437500000000E-03
(PID.TID 0000.0001) %MON dynstat_vvel_mean            =   0.0000000000000E+00
(PID.TID 0000.0001) %MON dynstat_vvel_sd              =   5.7727978755972E-03
(PID.TID 0000.0001) %MON dynstat_vvel_del2            =   1.0089048364799E-20
(PID.TID 0000.0001) %MON dynstat_wvel_max             =   1.1914062500000E-05
(PID.TID 0000.0001) %MON dynstat_wvel_min             =  -1.1914062500000E-05
(PID.TID 0000.0001) %MON dynstat_wvel_mean            =   3.4694469519536E-25
(PID.TID 0000.0001) %MON dynstat_wvel_sd              =   1.7200872247780E-06
(PID.TID 0000.0001) %MON dynstat_wvel_del2            =   2.8187489626940E-08
(PID.TID 0000.0001) %MON dynstat_theta_max            =  -1.6200000000000E+00
(PID.TID 0000.0001) %MON dynstat_theta_min            =  -1.6200000000000E+00
(PID.TID 0000.0001) %MON dynstat_theta_mean           =  -1.6200000000000E+00
(PID.TID 0000.0001) %MON dynstat_theta_sd             =   0.0000000000000E+00
(PID.TID 0000.0001) %MON dynstat_theta_del2           =   0.0000000000000E+00
(PID.TID 0000.0001) %MON dynstat_salt_max             =   3.0000000000000E+01
(PID.TID 0000.0001) %MON dynstat_salt_min             =   3.0000000000000E+01
(PID.TID 0000.0001) %MON dynstat_salt_mean            =   3.0000000000000E+01
(PID.TID 0000.0001) %MON dynstat_salt_sd              =   0.0000000000000E+00
(PID.TID 0000.0001) %MON dynstat_salt_del2            =   0.0000000000000E+00
(PID.TID 0000.0001) %MON trAdv_CFL_u_max              =   3.0761718750000E-06
(PID.TID 0000.0001) %MON trAdv_CFL_v_max              =   3.0761718750000E-06
(PID.TID 0000.0001) %MON trAdv_CFL_w_max              =   2.9785156250000E-06
(PID.TID 0000.0001) %MON advcfl_uvel_max              =   3.0761718750000E-06
(PID.TID 0000.0001) %MON advcfl_vvel_max              =   3.0761718750000E-06
(PID.TID 0000.0001) %MON advcfl_wvel_max              =   5.9570312500000E-06
(PID.TID 0000.0001) %MON advcfl_W_hf_max              =   0.0000000000000E+00
(PID.TID 0000.0001) %MON pe_b_mean                    =   0.0000000000000E+00
(PID.TID 0000.0001) %MON ke_max                       =   9.0844726562500E-05
(PID.TID 0000.0001) %MON ke_mean                      =   3.2804489135742E-05
(PID.TID 0000.0001) %MON ke_vol                       =   2.6214400000000E+12
(PID.TID 0000.0001) %MON vort_r_min                   =  -7.8125000000000E-08
(PID.TID 0000.0001) %MON vort_r_max                   =   1.2304687500000E-06
(PID.TID 0000.0001) %MON vort_a_mean                  =   1.4856000000000E-04
(PID.TID 0000.0001) %MON vort_a_sd                    =   1.5312918562496E-06
(PID.TID 0000.0001) %MON vort_p_mean                  =   1.5552375000000E-04
(PID.TID 0000.0001) %MON vort_p_sd                    =   5.5921473110222E-05
(PID.TID 0000.0001) %MON surfExpan_theta_mean         =   0.0000000000000E+00
(PID.TID 0000.0001) %MON surfExpan_salt_mean          =   1.3877787807814E-23
(PID.TID 0000.0001) // =======================================================
(PID.TID 0000.0001) // End MONITOR dynamic field statistics
(PID.TID 0000.0001) // =======================================================
(PID.TID 0000.0001) // =======================================================
(PID.TID 0000.0001) // Begin MONITOR SEAICE statistics
(PID.TID 0000.0001) // =======================================================
(PID.TID 0000.0001) %MON seaice_tsnumber              =                    15
(PID.TID 0000.0001) %MON seaice_time_sec              =   3.7500000000000E+01
(PID.TID 0000.0001) %MON seaice_uice_max              =   2.5714849651984E-02
(PID.TID 0000.0001) %MON seaice_uice_min              =  -2.6182388110997E-02
(PID.TID 0000.0001) %MON seaice_uice_mean             =  -6.6189482155779E-07
(PID.TID 0000.0001) %MON seaice_uice_sd               =   1.1044707819619E-02
(PID.TID 0000.0001) %MON seaice_uice_del2             =   3.2014419068330E-06
(PID.TID 0000.0001) %MON seaice_vice_max              =   2.5088116620586E-02
(PID.TID 0000.0001) %MON seaice_vice_min              =  -2.5423582149440E-02
(PID.TID 0000.0001) %MON seaice_vice_mean             =   2.9369065114379E-06
(PID.TID 0000.0001) %MON seaice_vice_sd               =   1.0992803119291E-02
(PID.TID 0000.0001) %MON seaice_vice_del2             =   3.2058669149586E-06
(PID.TID 0000.0001) %MON seaice_area_max              =   1.0000000000000E+00
(PID.TID 0000.0001) %MON seaice_area_min              =   9.9999151448817E-01
(PID.TID 0000.0001) %MON seaice_area_mean             =   9.9999950459645E-01
(PID.TID 0000.0001) %MON seaice_area_sd               =   1.1408202870608E-06
(PID.TID 0000.0001) %MON seaice_area_del2             =   1.4141657532881E-08
(PID.TID 0000.0001) %MON seaice_heff_max              =   3.0999854108297E-01
(PID.TID 0000.0001) %MON seaice_heff_min              =   2.9006042961358E-01
(PID.TID 0000.0001) %MON seaice_heff_mean             =   3.0067126525963E-01
(PID.TID 0000.0001) %MON seaice_heff_sd               =   5.0069249676519E-03
(PID.TID 0000.0001) %MON seaice_heff_del2             =   1.2853739913884E-05
(PID.TID 0000.0001) %MON seaice_hsnow_max             =   0.0000000000000E+00
(PID.TID 0000.0001) %MON seaice_hsnow_min             =   0.0000000000000E+00
(PID.TID 0000.0001) %MON seaice_hsnow_mean            =   0.0000000000000E+00
(PID.TID 0000.0001) %MON seaice_hsnow_sd              =   0.0000000000000E+00
(PID.TID 0000.0001) %MON seaice_hsnow_del2            =   0.0000000000000E+00
(PID.TID 0000.0001) // =======================================================
(PID.TID 0000.0001) // End MONITOR SEAICE statistics
(PID.TID 0000.0001) // =======================================================
 Computing Diagnostic #    163  SIuice       Counter:       1   Parms: UU      M1      
           Vector  Mate for  SIuice       Diagnostic #    164  SIvice   exists 
 Computing Diagnostic #    164  SIvice       Counter:       1   Parms: VV      M1      
           Vector  Mate for  SIvice       Diagnostic #    163  SIuice   exists 
 Computing Diagnostic #    149  SIheff       Counter:       1   Parms: SM      M1      
 Computing Diagnostic #    146  SIarea       Counter:       1   Parms: SM      M1      
 Computing Diagnostic #    228  SIshear      Counter:       1   Parms: SM      M1      
 Computing Diagnostic #    233  SIcohes      Counter:       1   Parms: SM      M1      
 Computing Diagnostic #    221  SIsig1       Counter:       1   Parms: SM      M1      
 Computing Diagnostic #    222  SIsig2       Counter:       1   Parms: SM      M1      
 Computing Diagnostic #    231  SIdamage     Counter:       1   Parms: SM      M1      
 Computing Diagnostic #    165  SItaux       Counter:       1   Parms: UU      U1      
           Vector  Mate for  SItaux       Diagnostic #    166  SItauy   exists 
 Computing Diagnostic #    166  SItauy       Counter:       1   Parms: VV      U1      
           Vector  Mate for  SItauy       Diagnostic #    165  SItaux   exists 
 Computing Diagnostic #    133  EXFuwind     Counter:       1   Parms: UM      U1      
 Computing Diagnostic #    134  EXFvwind     Counter:       1   Parms: VM      U1      
(PID.TID 0000.0001)  S/R SEAICE_KRYLOV: Picard iterate / total, KRYLOVgamma_lin, initial norm =       1   1501 0.10000E+00 0.10868E+00
(PID.TID 0000.0001)  S/R SEAICE_KRYLOV: Picard iterate / total =      1 /   1501, Nb. of FGMRES iterations =      1
(PID.TID 0000.0001)  S/R SEAICE_KRYLOV: Picard iterate / total, KRYLOVgamma_lin, initial norm =       2   1502 0.50000E-01 0.14738E-03
(PID.TID 0000.0001)  S/R SEAICE_KRYLOV: Picard iterate / total =      2 /   1502, Nb. of FGMRES iterations =      1
(PID.TID 0000.0001)  S/R SEAICE_KRYLOV: Picard iterate / total, KRYLOVgamma_lin, final   norm =       3   1503 0.50000E-01 0.30407E-04
(PID.TID 0000.0001)  // =======================================================
(PID.TID 0000.0001)  // Begin KRYLOV statistics
(PID.TID 0000.0001)  // =======================================================
(PID.TID 0000.0001)  %KRYLOV_MON: time step              =         16
(PID.TID 0000.0001)  %KRYLOV_MON: Nb. of time steps      =          1
(PID.TID 0000.0001)  %KRYLOV_MON: Nb. of Picard steps    =          3
(PID.TID 0000.0001)  %KRYLOV_MON: Nb. of Krylov steps    =          2
(PID.TID 0000.0001)  %KRYLOV_MON: Nb. of Picard failures =          0
(PID.TID 0000.0001)  %KRYLOV_MON: Nb. of Krylov failures =          0
(PID.TID 0000.0001)  // =======================================================
(PID.TID 0000.0001)  // End KRYLOV statistics
(PID.TID 0000.0001)  // =======================================================
(PID.TID 0000.0001)  S/R SEAICE_KRYLOV: Total number FGMRES iterations =      2 in timestep         16
(PID.TID 0000.0001) // =======================================================
(PID.TID 0000.0001) // Begin MONITOR dynamic field statistics
(PID.TID 0000.0001) // =======================================================
(PID.TID 0000.0001) %MON time_tsnumber                =                    16
(PID.TID 0000.0001) %MON time_secondsf                =   4.0000000000000E+01
(PID.TID 0000.0001) %MON dynstat_eta_max              =   0.0000000000000E+00
(PID.TID 0000.0001) %MON dynstat_eta_min              =   0.0000000000000E+00
(PID.TID 0000.0001) %MON dynstat_eta_mean             =   0.0000000000000E+00
(PID.TID 0000.0001) %MON dynstat_eta_sd               =   0.0000000000000E+00
(PID.TID 0000.0001) %MON dynstat_eta_del2             =   0.0000000000000E+00
(PID.TID 0000.0001) %MON dynstat_uvel_max             =   9.8437500000000E-03
(PID.TID 0000.0001) %MON dynstat_uvel_min             =  -9.8437500000000E-03
(PID.TID 0000.0001) %MON dynstat_uvel_mean            =   0.0000000000000E+00
(PID.TID 0000.0001) %MON dynstat_uvel_sd              =   5.7727978755972E-03
(PID.TID 0000.0001) %MON dynstat_uvel_del2            =   1.0089048364799E-20
(PID.TID 0000.0001) %MON dynstat_vvel_max             =   9.8437500000000E-03
(PID.TID 0000.0001) %MON dynstat_vvel_min             =  -9.8437500000000E-03
(PID.TID 0000.0001) %MON dynstat_vvel_mean            =   0.0000000000000E+00
(PID.TID 0000.0001) %MON dynstat_vvel_sd              =   5.7727978755972E-03
(PID.TID 0000.0001) %MON dynstat_vvel_del2            =   1.0089048364799E-20
(PID.TID 0000.0001) %MON dynstat_wvel_max             =   1.1914062500000E-05
(PID.TID 0000.0001) %MON dynstat_wvel_min             =  -1.1914062500000E-05
(PID.TID 0000.0001) %MON dynstat_wvel_mean            =   3.4694469519536E-25
(PID.TID 0000.0001) %MON dynstat_wvel_sd              =   1.7200872247780E-06
(PID.TID 0000.0001) %MON dynstat_wvel_del2            =   2.8187489626940E-08
(PID.TID 0000.0001) %MON dynstat_theta_max            =  -1.6200000000000E+00
(PID.TID 0000.0001) %MON dynstat_theta_min            =  -1.6200000000000E+00
(PID.TID 0000.0001) %MON dynstat_theta_mean           =  -1.6200000000000E+00
(PID.TID 0000.0001) %MON dynstat_theta_sd             =   0.0000000000000E+00
(PID.TID 0000.0001) %MON dynstat_theta_del2           =   0.0000000000000E+00
(PID.TID 0000.0001) %MON dynstat_salt_max             =   3.0000000000000E+01
(PID.TID 0000.0001) %MON dynstat_salt_min             =   3.0000000000000E+01
(PID.TID 0000.0001) %MON dynstat_salt_mean            =   3.0000000000000E+01
(PID.TID 0000.0001) %MON dynstat_salt_sd              =   0.0000000000000E+00
(PID.TID 0000.0001) %MON dynstat_salt_del2            =   0.0000000000000E+00
(PID.TID 0000.0001) %MON trAdv_CFL_u_max              =   3.0761718750000E-06
(PID.TID 0000.0001) %MON trAdv_CFL_v_max              =   3.0761718750000E-06
(PID.TID 0000.0001) %MON trAdv_CFL_w_max              =   2.9785156250000E-06
(PID.TID 0000.0001) %MON advcfl_uvel_max              =   3.0761718750000E-06
(PID.TID 0000.0001) %MON advcfl_vvel_max              =   3.0761718750000E-06
(PID.TID 0000.0001) %MON advcfl_wvel_max              =   5.9570312500000E-06
(PID.TID 0000.0001) %MON advcfl_W_hf_max              =   0.0000000000000E+00
(PID.TID 0000.0001) %MON pe_b_mean                    =   0.0000000000000E+00
(PID.TID 0000.0001) %MON ke_max                       =   9.0844726562500E-05
(PID.TID 0000.0001) %MON ke_mean                      =   3.2804489135742E-05
(PID.TID 0000.0001) %MON ke_vol                       =   2.6214400000000E+12
(PID.TID 0000.0001) %MON vort_r_min                   =  -7.8125000000000E-08
(PID.TID 0000.0001) %MON vort_r_max                   =   1.2304687500000E-06
(PID.TID 0000.0001) %MON vort_a_mean                  =   1.4856000000000E-04
(PID.TID 0000.0001) %MON vort_a_sd                    =   1.5312918562496E-06
(PID.TID 0000.0001) %MON vort_p_mean                  =   1.5552375000000E-04
(PID.TID 0000.0001) %MON vort_p_sd                    =   5.5921473110222E-05
(PID.TID 0000.0001) %MON surfExpan_theta_mean         =   0.0000000000000E+00
(PID.TID 0000.0001) %MON surfExpan_salt_mean          =   1.3877787807814E-23
(PID.TID 0000.0001) // =======================================================
(PID.TID 0000.0001) // End MONITOR dynamic field statistics
(PID.TID 0000.0001) // =======================================================
(PID.TID 0000.0001) // =======================================================
(PID.TID 0000.0001) // Begin MONITOR SEAICE statistics
(PID.TID 0000.0001) // =======================================================
(PID.TID 0000.0001) %MON seaice_tsnumber              =                    16
(PID.TID 0000.0001) %MON seaice_time_sec              =   4.0000000000000E+01
(PID.TID 0000.0001) %MON seaice_uice_max              =   2.7405920791577E-02
(PID.TID 0000.0001) %MON seaice_uice_min              =  -2.7891055452134E-02
(PID.TID 0000.0001) %MON seaice_uice_mean             =  -7.1590623123928E-07
(PID.TID 0000.0001) %MON seaice_uice_sd               =   1.1763054135349E-02
(PID.TID 0000.0001) %MON seaice_uice_del2             =   3.4050897429070E-06
(PID.TID 0000.0001) %MON seaice_vice_max              =   2.6730873332554E-02
(PID.TID 0000.0001) %MON seaice_vice_min              =  -2.7093363961827E-02
(PID.TID 0000.0001) %MON seaice_vice_mean             =   3.1278675181830E-06
(PID.TID 0000.0001) %MON seaice_vice_sd               =   1.1707952949463E-02
(PID.TID 0000.0001) %MON seaice_vice_del2             =   3.4123999425846E-06
(PID.TID 0000.0001) %MON seaice_area_max              =   1.0000000000000E+00
(PID.TID 0000.0001) %MON seaice_area_min              =   9.9999035969331E-01
(PID.TID 0000.0001) %MON seaice_area_mean             =   9.9999943950120E-01
(PID.TID 0000.0001) %MON seaice_area_sd               =   1.2959751774155E-06
(PID.TID 0000.0001) %MON seaice_area_del2             =   1.6158681774637E-08
(PID.TID 0000.0001) %MON seaice_heff_max              =   3.0999852360610E-01
(PID.TID 0000.0001) %MON seaice_heff_min              =   2.9006041162315E-01
(PID.TID 0000.0001) %MON seaice_heff_mean             =   3.0067126525963E-01
(PID.TID 0000.0001) %MON seaice_heff_sd               =   5.0069251727527E-03
(PID.TID 0000.0001) %MON seaice_heff_del2             =   1.2853738709722E-05
(PID.TID 0000.0001) %MON seaice_hsnow_max             =   0.0000000000000E+00
(PID.TID 0000.0001) %MON seaice_hsnow_min             =   0.0000000000000E+00
(PID.TID 0000.0001) %MON seaice_hsnow_mean            =   0.0000000000000E+00
(PID.TID 0000.0001) %MON seaice_hsnow_sd              =   0.0000000000000E+00
(PID.TID 0000.0001) %MON seaice_hsnow_del2            =   0.0000000000000E+00
(PID.TID 0000.0001) // =======================================================
(PID.TID 0000.0001) // End MONITOR SEAICE statistics
(PID.TID 0000.0001) // =======================================================
 Computing Diagnostic #    163  SIuice       Counter:       1   Parms: UU      M1      
           Vector  Mate for  SIuice       Diagnostic #    164  SIvice   exists 
 Computing Diagnostic #    164  SIvice       Counter:       1   Parms: VV      M1      
           Vector  Mate for  SIvice       Diagnostic #    163  SIuice   exists 
 Computing Diagnostic #    149  SIheff       Counter:       1   Parms: SM      M1      
 Computing Diagnostic #    146  SIarea       Counter:       1   Parms: SM      M1      
 Computing Diagnostic #    228  SIshear      Counter:       1   Parms: SM      M1      
 Computing Diagnostic #    233  SIcohes      Counter:       1   Parms: SM      M1      
 Computing Diagnostic #    221  SIsig1       Counter:       1   Parms: SM      M1      
 Computing Diagnostic #    222  SIsig2       Counter:       1   Parms: SM      M1      
 Computing Diagnostic #    231  SIdamage     Counter:       1   Parms: SM      M1      
 Computing Diagnostic #    165  SItaux       Counter:       1   Parms: UU      U1      
           Vector  Mate for  SItaux       Diagnostic #    166  SItauy   exists 
 Computing Diagnostic #    166  SItauy       Counter:       1   Parms: VV      U1      
           Vector  Mate for  SItauy       Diagnostic #    165  SItaux   exists 
 Computing Diagnostic #    133  EXFuwind     Counter:       1   Parms: UM      U1      
 Computing Diagnostic #    134  EXFvwind     Counter:       1   Parms: VM      U1      
(PID.TID 0000.0001)  S/R SEAICE_KRYLOV: Picard iterate / total, KRYLOVgamma_lin, initial norm =       1   1601 0.10000E+00 0.10838E+00
(PID.TID 0000.0001)  S/R SEAICE_KRYLOV: Picard iterate / total =      1 /   1601, Nb. of FGMRES iterations =      1
(PID.TID 0000.0001)  S/R SEAICE_KRYLOV: Picard iterate / total, KRYLOVgamma_lin, initial norm =       2   1602 0.50000E-01 0.13994E-03
(PID.TID 0000.0001)  S/R SEAICE_KRYLOV: Picard iterate / total =      2 /   1602, Nb. of FGMRES iterations =      1
(PID.TID 0000.0001)  S/R SEAICE_KRYLOV: Picard iterate / total, KRYLOVgamma_lin, final   norm =       3   1603 0.50000E-01 0.32700E-04
(PID.TID 0000.0001)  // =======================================================
(PID.TID 0000.0001)  // Begin KRYLOV statistics
(PID.TID 0000.0001)  // =======================================================
(PID.TID 0000.0001)  %KRYLOV_MON: time step              =         17
(PID.TID 0000.0001)  %KRYLOV_MON: Nb. of time steps      =          1
(PID.TID 0000.0001)  %KRYLOV_MON: Nb. of Picard steps    =          3
(PID.TID 0000.0001)  %KRYLOV_MON: Nb. of Krylov steps    =          2
(PID.TID 0000.0001)  %KRYLOV_MON: Nb. of Picard failures =          0
(PID.TID 0000.0001)  %KRYLOV_MON: Nb. of Krylov failures =          0
(PID.TID 0000.0001)  // =======================================================
(PID.TID 0000.0001)  // End KRYLOV statistics
(PID.TID 0000.0001)  // =======================================================
(PID.TID 0000.0001)  S/R SEAICE_KRYLOV: Total number FGMRES iterations =      2 in timestep         17
(PID.TID 0000.0001) // =======================================================
(PID.TID 0000.0001) // Begin MONITOR dynamic field statistics
(PID.TID 0000.0001) // =======================================================
(PID.TID 0000.0001) %MON time_tsnumber                =                    17
(PID.TID 0000.0001) %MON time_secondsf                =   4.2500000000000E+01
(PID.TID 0000.0001) %MON dynstat_eta_max              =   0.0000000000000E+00
(PID.TID 0000.0001) %MON dynstat_eta_min              =   0.0000000000000E+00
(PID.TID 0000.0001) %MON dynstat_eta_mean             =   0.0000000000000E+00
(PID.TID 0000.0001) %MON dynstat_eta_sd               =   0.0000000000000E+00
(PID.TID 0000.0001) %MON dynstat_eta_del2             =   0.0000000000000E+00
(PID.TID 0000.0001) %MON dynstat_uvel_max             =   9.8437500000000E-03
(PID.TID 0000.0001) %MON dynstat_uvel_min             =  -9.8437500000000E-03
(PID.TID 0000.0001) %MON dynstat_uvel_mean            =   0.0000000000000E+00
(PID.TID 0000.0001) %MON dynstat_uvel_sd              =   5.7727978755972E-03
(PID.TID 0000.0001) %MON dynstat_uvel_del2            =   1.0089048364799E-20
(PID.TID 0000.0001) %MON dynstat_vvel_max             =   9.8437500000000E-03
(PID.TID 0000.0001) %MON dynstat_vvel_min             =  -9.8437500000000E-03
(PID.TID 0000.0001) %MON dynstat_vvel_mean            =   0.0000000000000E+00
(PID.TID 0000.0001) %MON dynstat_vvel_sd              =   5.7727978755972E-03
(PID.TID 0000.0001) %MON dynstat_vvel_del2            =   1.0089048364799E-20
(PID.TID 0000.0001) %MON dynstat_wvel_max             =   1.1914062500000E-05
(PID.TID 0000.0001) %MON dynstat_wvel_min             =  -1.1914062500000E-05
(PID.TID 0000.0001) %MON dynstat_wvel_mean            =   3.4694469519536E-25
(PID.TID 0000.0001) %MON dynstat_wvel_sd              =   1.7200872247780E-06
(PID.TID 0000.0001) %MON dynstat_wvel_del2            =   2.8187489626940E-08
(PID.TID 0000.0001) %MON dynstat_theta_max            =  -1.6200000000000E+00
(PID.TID 0000.0001) %MON dynstat_theta_min            =  -1.6200000000000E+00
(PID.TID 0000.0001) %MON dynstat_theta_mean           =  -1.6200000000000E+00
(PID.TID 0000.0001) %MON dynstat_theta_sd             =   0.0000000000000E+00
(PID.TID 0000.0001) %MON dynstat_theta_del2           =   0.0000000000000E+00
(PID.TID 0000.0001) %MON dynstat_salt_max             =   3.0000000000000E+01
(PID.TID 0000.0001) %MON dynstat_salt_min             =   3.0000000000000E+01
(PID.TID 0000.0001) %MON dynstat_salt_mean            =   3.0000000000000E+01
(PID.TID 0000.0001) %MON dynstat_salt_sd              =   0.0000000000000E+00
(PID.TID 0000.0001) %MON dynstat_salt_del2            =   0.0000000000000E+00
(PID.TID 0000.0001) %MON trAdv_CFL_u_max              =   3.0761718750000E-06
(PID.TID 0000.0001) %MON trAdv_CFL_v_max              =   3.0761718750000E-06
(PID.TID 0000.0001) %MON trAdv_CFL_w_max              =   2.9785156250000E-06
(PID.TID 0000.0001) %MON advcfl_uvel_max              =   3.0761718750000E-06
(PID.TID 0000.0001) %MON advcfl_vvel_max              =   3.0761718750000E-06
(PID.TID 0000.0001) %MON advcfl_wvel_max              =   5.9570312500000E-06
(PID.TID 0000.0001) %MON advcfl_W_hf_max              =   0.0000000000000E+00
(PID.TID 0000.0001) %MON pe_b_mean                    =   0.0000000000000E+00
(PID.TID 0000.0001) %MON ke_max                       =   9.0844726562500E-05
(PID.TID 0000.0001) %MON ke_mean                      =   3.2804489135742E-05
(PID.TID 0000.0001) %MON ke_vol                       =   2.6214400000000E+12
(PID.TID 0000.0001) %MON vort_r_min                   =  -7.8125000000000E-08
(PID.TID 0000.0001) %MON vort_r_max                   =   1.2304687500000E-06
(PID.TID 0000.0001) %MON vort_a_mean                  =   1.4856000000000E-04
(PID.TID 0000.0001) %MON vort_a_sd                    =   1.5312918562496E-06
(PID.TID 0000.0001) %MON vort_p_mean                  =   1.5552375000000E-04
(PID.TID 0000.0001) %MON vort_p_sd                    =   5.5921473110222E-05
(PID.TID 0000.0001) %MON surfExpan_theta_mean         =   0.0000000000000E+00
(PID.TID 0000.0001) %MON surfExpan_salt_mean          =   1.3877787807814E-23
(PID.TID 0000.0001) // =======================================================
(PID.TID 0000.0001) // End MONITOR dynamic field statistics
(PID.TID 0000.0001) // =======================================================
(PID.TID 0000.0001) // =======================================================
(PID.TID 0000.0001) // Begin MONITOR SEAICE statistics
(PID.TID 0000.0001) // =======================================================
(PID.TID 0000.0001) %MON seaice_tsnumber              =                    17
(PID.TID 0000.0001) %MON seaice_time_sec              =   4.2500000000000E+01
(PID.TID 0000.0001) %MON seaice_uice_max              =   2.9094635281041E-02
(PID.TID 0000.0001) %MON seaice_uice_min              =  -2.9596363027078E-02
(PID.TID 0000.0001) %MON seaice_uice_mean             =  -7.7043953781576E-07
(PID.TID 0000.0001) %MON seaice_uice_sd               =   1.2479410429324E-02
(PID.TID 0000.0001) %MON seaice_uice_del2             =   3.6114949711766E-06
(PID.TID 0000.0001) %MON seaice_vice_max              =   2.8370385940413E-02
(PID.TID 0000.0001) %MON seaice_vice_min              =  -2.8761258701709E-02
(PID.TID 0000.0001) %MON seaice_vice_mean             =   3.3155797528062E-06
(PID.TID 0000.0001) %MON seaice_vice_sd               =   1.2421131298651E-02
(PID.TID 0000.0001) %MON seaice_vice_del2             =   3.6217630413211E-06
(PID.TID 0000.0001) %MON seaice_area_max              =   1.0000000000000E+00
(PID.TID 0000.0001) %MON seaice_area_min              =   9.9998913005067E-01
(PID.TID 0000.0001) %MON seaice_area_mean             =   9.9999937047206E-01
(PID.TID 0000.0001) %MON seaice_area_sd               =   1.4612417138111E-06
(PID.TID 0000.0001) %MON seaice_area_del2             =   1.8313914312062E-08
(PID.TID 0000.0001) %MON seaice_heff_max              =   3.0999850504355E-01
(PID.TID 0000.0001) %MON seaice_heff_min              =   2.9006039253719E-01
(PID.TID 0000.0001) %MON seaice_heff_mean             =   3.0067126525963E-01
(PID.TID 0000.0001) %MON seaice_heff_sd               =   5.0069253511006E-03
(PID.TID 0000.0001) %MON seaice_heff_del2             =   1.2853737459774E-05
(PID.TID 0000.0001) %MON seaice_hsnow_max             =   0.0000000000000E+00
(PID.TID 0000.0001) %MON seaice_hsnow_min             =   0.0000000000000E+00
(PID.TID 0000.0001) %MON seaice_hsnow_mean            =   0.0000000000000E+00
(PID.TID 0000.0001) %MON seaice_hsnow_sd              =   0.0000000000000E+00
(PID.TID 0000.0001) %MON seaice_hsnow_del2            =   0.0000000000000E+00
(PID.TID 0000.0001) // =======================================================
(PID.TID 0000.0001) // End MONITOR SEAICE statistics
(PID.TID 0000.0001) // =======================================================
 Computing Diagnostic #    163  SIuice       Counter:       1   Parms: UU      M1      
           Vector  Mate for  SIuice       Diagnostic #    164  SIvice   exists 
 Computing Diagnostic #    164  SIvice       Counter:       1   Parms: VV      M1      
           Vector  Mate for  SIvice       Diagnostic #    163  SIuice   exists 
 Computing Diagnostic #    149  SIheff       Counter:       1   Parms: SM      M1      
 Computing Diagnostic #    146  SIarea       Counter:       1   Parms: SM      M1      
 Computing Diagnostic #    228  SIshear      Counter:       1   Parms: SM      M1      
 Computing Diagnostic #    233  SIcohes      Counter:       1   Parms: SM      M1      
 Computing Diagnostic #    221  SIsig1       Counter:       1   Parms: SM      M1      
 Computing Diagnostic #    222  SIsig2       Counter:       1   Parms: SM      M1      
 Computing Diagnostic #    231  SIdamage     Counter:       1   Parms: SM      M1      
 Computing Diagnostic #    165  SItaux       Counter:       1   Parms: UU      U1      
           Vector  Mate for  SItaux       Diagnostic #    166  SItauy   exists 
 Computing Diagnostic #    166  SItauy       Counter:       1   Parms: VV      U1      
           Vector  Mate for  SItauy       Diagnostic #    165  SItaux   exists 
 Computing Diagnostic #    133  EXFuwind     Counter:       1   Parms: UM      U1      
 Computing Diagnostic #    134  EXFvwind     Counter:       1   Parms: VM      U1      
(PID.TID 0000.0001)  S/R SEAICE_KRYLOV: Picard iterate / total, KRYLOVgamma_lin, initial norm =       1   1701 0.10000E+00 0.10809E+00
(PID.TID 0000.0001)  S/R SEAICE_KRYLOV: Picard iterate / total =      1 /   1701, Nb. of FGMRES iterations =      1
(PID.TID 0000.0001)  S/R SEAICE_KRYLOV: Picard iterate / total, KRYLOVgamma_lin, initial norm =       2   1702 0.50000E-01 0.12811E-03
(PID.TID 0000.0001)  S/R SEAICE_KRYLOV: Picard iterate / total =      2 /   1702, Nb. of FGMRES iterations =      1
(PID.TID 0000.0001)  S/R SEAICE_KRYLOV: Picard iterate / total, KRYLOVgamma_lin, final   norm =       3   1703 0.50000E-01 0.29118E-04
(PID.TID 0000.0001)  // =======================================================
(PID.TID 0000.0001)  // Begin KRYLOV statistics
(PID.TID 0000.0001)  // =======================================================
(PID.TID 0000.0001)  %KRYLOV_MON: time step              =         18
(PID.TID 0000.0001)  %KRYLOV_MON: Nb. of time steps      =          1
(PID.TID 0000.0001)  %KRYLOV_MON: Nb. of Picard steps    =          3
(PID.TID 0000.0001)  %KRYLOV_MON: Nb. of Krylov steps    =          2
(PID.TID 0000.0001)  %KRYLOV_MON: Nb. of Picard failures =          0
(PID.TID 0000.0001)  %KRYLOV_MON: Nb. of Krylov failures =          0
(PID.TID 0000.0001)  // =======================================================
(PID.TID 0000.0001)  // End KRYLOV statistics
(PID.TID 0000.0001)  // =======================================================
(PID.TID 0000.0001)  S/R SEAICE_KRYLOV: Total number FGMRES iterations =      2 in timestep         18
(PID.TID 0000.0001) // =======================================================
(PID.TID 0000.0001) // Begin MONITOR dynamic field statistics
(PID.TID 0000.0001) // =======================================================
(PID.TID 0000.0001) %MON time_tsnumber                =                    18
(PID.TID 0000.0001) %MON time_secondsf                =   4.5000000000000E+01
(PID.TID 0000.0001) %MON dynstat_eta_max              =   0.0000000000000E+00
(PID.TID 0000.0001) %MON dynstat_eta_min              =   0.0000000000000E+00
(PID.TID 0000.0001) %MON dynstat_eta_mean             =   0.0000000000000E+00
(PID.TID 0000.0001) %MON dynstat_eta_sd               =   0.0000000000000E+00
(PID.TID 0000.0001) %MON dynstat_eta_del2             =   0.0000000000000E+00
(PID.TID 0000.0001) %MON dynstat_uvel_max             =   9.8437500000000E-03
(PID.TID 0000.0001) %MON dynstat_uvel_min             =  -9.8437500000000E-03
(PID.TID 0000.0001) %MON dynstat_uvel_mean            =   0.0000000000000E+00
(PID.TID 0000.0001) %MON dynstat_uvel_sd              =   5.7727978755972E-03
(PID.TID 0000.0001) %MON dynstat_uvel_del2            =   1.0089048364799E-20
(PID.TID 0000.0001) %MON dynstat_vvel_max             =   9.8437500000000E-03
(PID.TID 0000.0001) %MON dynstat_vvel_min             =  -9.8437500000000E-03
(PID.TID 0000.0001) %MON dynstat_vvel_mean            =   0.0000000000000E+00
(PID.TID 0000.0001) %MON dynstat_vvel_sd              =   5.7727978755972E-03
(PID.TID 0000.0001) %MON dynstat_vvel_del2            =   1.0089048364799E-20
(PID.TID 0000.0001) %MON dynstat_wvel_max             =   1.1914062500000E-05
(PID.TID 0000.0001) %MON dynstat_wvel_min             =  -1.1914062500000E-05
(PID.TID 0000.0001) %MON dynstat_wvel_mean            =   3.4694469519536E-25
(PID.TID 0000.0001) %MON dynstat_wvel_sd              =   1.7200872247780E-06
(PID.TID 0000.0001) %MON dynstat_wvel_del2            =   2.8187489626940E-08
(PID.TID 0000.0001) %MON dynstat_theta_max            =  -1.6200000000000E+00
(PID.TID 0000.0001) %MON dynstat_theta_min            =  -1.6200000000000E+00
(PID.TID 0000.0001) %MON dynstat_theta_mean           =  -1.6200000000000E+00
(PID.TID 0000.0001) %MON dynstat_theta_sd             =   0.0000000000000E+00
(PID.TID 0000.0001) %MON dynstat_theta_del2           =   0.0000000000000E+00
(PID.TID 0000.0001) %MON dynstat_salt_max             =   3.0000000000000E+01
(PID.TID 0000.0001) %MON dynstat_salt_min             =   3.0000000000000E+01
(PID.TID 0000.0001) %MON dynstat_salt_mean            =   3.0000000000000E+01
(PID.TID 0000.0001) %MON dynstat_salt_sd              =   0.0000000000000E+00
(PID.TID 0000.0001) %MON dynstat_salt_del2            =   0.0000000000000E+00
(PID.TID 0000.0001) %MON trAdv_CFL_u_max              =   3.0761718750000E-06
(PID.TID 0000.0001) %MON trAdv_CFL_v_max              =   3.0761718750000E-06
(PID.TID 0000.0001) %MON trAdv_CFL_w_max              =   2.9785156250000E-06
(PID.TID 0000.0001) %MON advcfl_uvel_max              =   3.0761718750000E-06
(PID.TID 0000.0001) %MON advcfl_vvel_max              =   3.0761718750000E-06
(PID.TID 0000.0001) %MON advcfl_wvel_max              =   5.9570312500000E-06
(PID.TID 0000.0001) %MON advcfl_W_hf_max              =   0.0000000000000E+00
(PID.TID 0000.0001) %MON pe_b_mean                    =   0.0000000000000E+00
(PID.TID 0000.0001) %MON ke_max                       =   9.0844726562500E-05
(PID.TID 0000.0001) %MON ke_mean                      =   3.2804489135742E-05
(PID.TID 0000.0001) %MON ke_vol                       =   2.6214400000000E+12
(PID.TID 0000.0001) %MON vort_r_min                   =  -7.8125000000000E-08
(PID.TID 0000.0001) %MON vort_r_max                   =   1.2304687500000E-06
(PID.TID 0000.0001) %MON vort_a_mean                  =   1.4856000000000E-04
(PID.TID 0000.0001) %MON vort_a_sd                    =   1.5312918562496E-06
(PID.TID 0000.0001) %MON vort_p_mean                  =   1.5552375000000E-04
(PID.TID 0000.0001) %MON vort_p_sd                    =   5.5921473110222E-05
(PID.TID 0000.0001) %MON surfExpan_theta_mean         =   0.0000000000000E+00
(PID.TID 0000.0001) %MON surfExpan_salt_mean          =   1.3877787807814E-23
(PID.TID 0000.0001) // =======================================================
(PID.TID 0000.0001) // End MONITOR dynamic field statistics
(PID.TID 0000.0001) // =======================================================
(PID.TID 0000.0001) // =======================================================
(PID.TID 0000.0001) // Begin MONITOR SEAICE statistics
(PID.TID 0000.0001) // =======================================================
(PID.TID 0000.0001) %MON seaice_tsnumber              =                    18
(PID.TID 0000.0001) %MON seaice_time_sec              =   4.5000000000000E+01
(PID.TID 0000.0001) %MON seaice_uice_max              =   3.0781817279864E-02
(PID.TID 0000.0001) %MON seaice_uice_min              =  -3.1298365322385E-02
(PID.TID 0000.0001) %MON seaice_uice_mean             =  -8.2561948563217E-07
(PID.TID 0000.0001) %MON seaice_uice_sd               =   1.3193772698000E-02
(PID.TID 0000.0001) %MON seaice_uice_del2             =   3.8229367942088E-06
(PID.TID 0000.0001) %MON seaice_vice_max              =   3.0006685318323E-02
(PID.TID 0000.0001) %MON seaice_vice_min              =  -3.0426981388760E-02
(PID.TID 0000.0001) %MON seaice_vice_mean             =   3.4999845835550E-06
(PID.TID 0000.0001) %MON seaice_vice_sd               =   1.3132337885325E-02
(PID.TID 0000.0001) %MON seaice_vice_del2             =   3.8307184997888E-06
(PID.TID 0000.0001) %MON seaice_area_max              =   1.0000000000000E+00
(PID.TID 0000.0001) %MON seaice_area_min              =   9.9998782552517E-01
(PID.TID 0000.0001) %MON seaice_area_mean             =   9.9999929751699E-01
(PID.TID 0000.0001) %MON seaice_area_sd               =   1.6366229646246E-06
(PID.TID 0000.0001) %MON seaice_area_del2             =   2.0608734754060E-08
(PID.TID 0000.0001) %MON seaice_heff_max              =   3.0999848539682E-01
(PID.TID 0000.0001) %MON seaice_heff_min              =   2.9006037235904E-01
(PID.TID 0000.0001) %MON seaice_heff_mean             =   3.0067126525963E-01
(PID.TID 0000.0001) %MON seaice_heff_sd               =   5.0069254940278E-03
(PID.TID 0000.0001) %MON seaice_heff_del2             =   1.2853736178373E-05
(PID.TID 0000.0001) %MON seaice_hsnow_max             =   0.0000000000000E+00
(PID.TID 0000.0001) %MON seaice_hsnow_min             =   0.0000000000000E+00
(PID.TID 0000.0001) %MON seaice_hsnow_mean            =   0.0000000000000E+00
(PID.TID 0000.0001) %MON seaice_hsnow_sd              =   0.0000000000000E+00
(PID.TID 0000.0001) %MON seaice_hsnow_del2            =   0.0000000000000E+00
(PID.TID 0000.0001) // =======================================================
(PID.TID 0000.0001) // End MONITOR SEAICE statistics
(PID.TID 0000.0001) // =======================================================
 Computing Diagnostic #    163  SIuice       Counter:       1   Parms: UU      M1      
           Vector  Mate for  SIuice       Diagnostic #    164  SIvice   exists 
 Computing Diagnostic #    164  SIvice       Counter:       1   Parms: VV      M1      
           Vector  Mate for  SIvice       Diagnostic #    163  SIuice   exists 
 Computing Diagnostic #    149  SIheff       Counter:       1   Parms: SM      M1      
 Computing Diagnostic #    146  SIarea       Counter:       1   Parms: SM      M1      
 Computing Diagnostic #    228  SIshear      Counter:       1   Parms: SM      M1      
 Computing Diagnostic #    233  SIcohes      Counter:       1   Parms: SM      M1      
 Computing Diagnostic #    221  SIsig1       Counter:       1   Parms: SM      M1      
 Computing Diagnostic #    222  SIsig2       Counter:       1   Parms: SM      M1      
 Computing Diagnostic #    231  SIdamage     Counter:       1   Parms: SM      M1      
 Computing Diagnostic #    165  SItaux       Counter:       1   Parms: UU      U1      
           Vector  Mate for  SItaux       Diagnostic #    166  SItauy   exists 
 Computing Diagnostic #    166  SItauy       Counter:       1   Parms: VV      U1      
           Vector  Mate for  SItauy       Diagnostic #    165  SItaux   exists 
 Computing Diagnostic #    133  EXFuwind     Counter:       1   Parms: UM      U1      
 Computing Diagnostic #    134  EXFvwind     Counter:       1   Parms: VM      U1      
(PID.TID 0000.0001)  S/R SEAICE_KRYLOV: Picard iterate / total, KRYLOVgamma_lin, initial norm =       1   1801 0.10000E+00 0.10780E+00
(PID.TID 0000.0001)  S/R SEAICE_KRYLOV: Picard iterate / total =      1 /   1801, Nb. of FGMRES iterations =      1
(PID.TID 0000.0001)  S/R SEAICE_KRYLOV: Picard iterate / total, KRYLOVgamma_lin, initial norm =       2   1802 0.50000E-01 0.12152E-03
(PID.TID 0000.0001)  S/R SEAICE_KRYLOV: Picard iterate / total =      2 /   1802, Nb. of FGMRES iterations =      1
(PID.TID 0000.0001)  S/R SEAICE_KRYLOV: Picard iterate / total, KRYLOVgamma_lin, final   norm =       3   1803 0.50000E-01 0.28455E-04
(PID.TID 0000.0001)  // =======================================================
(PID.TID 0000.0001)  // Begin KRYLOV statistics
(PID.TID 0000.0001)  // =======================================================
(PID.TID 0000.0001)  %KRYLOV_MON: time step              =         19
(PID.TID 0000.0001)  %KRYLOV_MON: Nb. of time steps      =          1
(PID.TID 0000.0001)  %KRYLOV_MON: Nb. of Picard steps    =          3
(PID.TID 0000.0001)  %KRYLOV_MON: Nb. of Krylov steps    =          2
(PID.TID 0000.0001)  %KRYLOV_MON: Nb. of Picard failures =          0
(PID.TID 0000.0001)  %KRYLOV_MON: Nb. of Krylov failures =          0
(PID.TID 0000.0001)  // =======================================================
(PID.TID 0000.0001)  // End KRYLOV statistics
(PID.TID 0000.0001)  // =======================================================
(PID.TID 0000.0001)  S/R SEAICE_KRYLOV: Total number FGMRES iterations =      2 in timestep         19
(PID.TID 0000.0001) // =======================================================
(PID.TID 0000.0001) // Begin MONITOR dynamic field statistics
(PID.TID 0000.0001) // =======================================================
(PID.TID 0000.0001) %MON time_tsnumber                =                    19
(PID.TID 0000.0001) %MON time_secondsf                =   4.7500000000000E+01
(PID.TID 0000.0001) %MON dynstat_eta_max              =   0.0000000000000E+00
(PID.TID 0000.0001) %MON dynstat_eta_min              =   0.0000000000000E+00
(PID.TID 0000.0001) %MON dynstat_eta_mean             =   0.0000000000000E+00
(PID.TID 0000.0001) %MON dynstat_eta_sd               =   0.0000000000000E+00
(PID.TID 0000.0001) %MON dynstat_eta_del2             =   0.0000000000000E+00
(PID.TID 0000.0001) %MON dynstat_uvel_max             =   9.8437500000000E-03
(PID.TID 0000.0001) %MON dynstat_uvel_min             =  -9.8437500000000E-03
(PID.TID 0000.0001) %MON dynstat_uvel_mean            =   0.0000000000000E+00
(PID.TID 0000.0001) %MON dynstat_uvel_sd              =   5.7727978755972E-03
(PID.TID 0000.0001) %MON dynstat_uvel_del2            =   1.0089048364799E-20
(PID.TID 0000.0001) %MON dynstat_vvel_max             =   9.8437500000000E-03
(PID.TID 0000.0001) %MON dynstat_vvel_min             =  -9.8437500000000E-03
(PID.TID 0000.0001) %MON dynstat_vvel_mean            =   0.0000000000000E+00
(PID.TID 0000.0001) %MON dynstat_vvel_sd              =   5.7727978755972E-03
(PID.TID 0000.0001) %MON dynstat_vvel_del2            =   1.0089048364799E-20
(PID.TID 0000.0001) %MON dynstat_wvel_max             =   1.1914062500000E-05
(PID.TID 0000.0001) %MON dynstat_wvel_min             =  -1.1914062500000E-05
(PID.TID 0000.0001) %MON dynstat_wvel_mean            =   3.4694469519536E-25
(PID.TID 0000.0001) %MON dynstat_wvel_sd              =   1.7200872247780E-06
(PID.TID 0000.0001) %MON dynstat_wvel_del2            =   2.8187489626940E-08
(PID.TID 0000.0001) %MON dynstat_theta_max            =  -1.6200000000000E+00
(PID.TID 0000.0001) %MON dynstat_theta_min            =  -1.6200000000000E+00
(PID.TID 0000.0001) %MON dynstat_theta_mean           =  -1.6200000000000E+00
(PID.TID 0000.0001) %MON dynstat_theta_sd             =   0.0000000000000E+00
(PID.TID 0000.0001) %MON dynstat_theta_del2           =   0.0000000000000E+00
(PID.TID 0000.0001) %MON dynstat_salt_max             =   3.0000000000000E+01
(PID.TID 0000.0001) %MON dynstat_salt_min             =   3.0000000000000E+01
(PID.TID 0000.0001) %MON dynstat_salt_mean            =   3.0000000000000E+01
(PID.TID 0000.0001) %MON dynstat_salt_sd              =   0.0000000000000E+00
(PID.TID 0000.0001) %MON dynstat_salt_del2            =   0.0000000000000E+00
(PID.TID 0000.0001) %MON trAdv_CFL_u_max              =   3.0761718750000E-06
(PID.TID 0000.0001) %MON trAdv_CFL_v_max              =   3.0761718750000E-06
(PID.TID 0000.0001) %MON trAdv_CFL_w_max              =   2.9785156250000E-06
(PID.TID 0000.0001) %MON advcfl_uvel_max              =   3.0761718750000E-06
(PID.TID 0000.0001) %MON advcfl_vvel_max              =   3.0761718750000E-06
(PID.TID 0000.0001) %MON advcfl_wvel_max              =   5.9570312500000E-06
(PID.TID 0000.0001) %MON advcfl_W_hf_max              =   0.0000000000000E+00
(PID.TID 0000.0001) %MON pe_b_mean                    =   0.0000000000000E+00
(PID.TID 0000.0001) %MON ke_max                       =   9.0844726562500E-05
(PID.TID 0000.0001) %MON ke_mean                      =   3.2804489135742E-05
(PID.TID 0000.0001) %MON ke_vol                       =   2.6214400000000E+12
(PID.TID 0000.0001) %MON vort_r_min                   =  -7.8125000000000E-08
(PID.TID 0000.0001) %MON vort_r_max                   =   1.2304687500000E-06
(PID.TID 0000.0001) %MON vort_a_mean                  =   1.4856000000000E-04
(PID.TID 0000.0001) %MON vort_a_sd                    =   1.5312918562496E-06
(PID.TID 0000.0001) %MON vort_p_mean                  =   1.5552375000000E-04
(PID.TID 0000.0001) %MON vort_p_sd                    =   5.5921473110222E-05
(PID.TID 0000.0001) %MON surfExpan_theta_mean         =   0.0000000000000E+00
(PID.TID 0000.0001) %MON surfExpan_salt_mean          =   1.3877787807814E-23
(PID.TID 0000.0001) // =======================================================
(PID.TID 0000.0001) // End MONITOR dynamic field statistics
(PID.TID 0000.0001) // =======================================================
(PID.TID 0000.0001) // =======================================================
(PID.TID 0000.0001) // Begin MONITOR SEAICE statistics
(PID.TID 0000.0001) // =======================================================
(PID.TID 0000.0001) %MON seaice_tsnumber              =                    19
(PID.TID 0000.0001) %MON seaice_time_sec              =   4.7500000000000E+01
(PID.TID 0000.0001) %MON seaice_uice_max              =   3.2467381879193E-02
(PID.TID 0000.0001) %MON seaice_uice_min              =  -3.2997094548840E-02
(PID.TID 0000.0001) %MON seaice_uice_mean             =  -8.8149723414942E-07
(PID.TID 0000.0001) %MON seaice_uice_sd               =   1.3906141519557E-02
(PID.TID 0000.0001) %MON seaice_uice_del2             =   4.0326627669908E-06
(PID.TID 0000.0001) %MON seaice_vice_max              =   3.1639806323563E-02
(PID.TID 0000.0001) %MON seaice_vice_min              =  -3.2090092748243E-02
(PID.TID 0000.0001) %MON seaice_vice_mean             =   3.6809884289329E-06
(PID.TID 0000.0001) %MON seaice_vice_sd               =   1.3841569472759E-02
(PID.TID 0000.0001) %MON seaice_vice_del2             =   4.0408933830097E-06
(PID.TID 0000.0001) %MON seaice_area_max              =   1.0000000000000E+00
(PID.TID 0000.0001) %MON seaice_area_min              =   9.9998644609942E-01
(PID.TID 0000.0001) %MON seaice_area_mean             =   9.9999922065279E-01
(PID.TID 0000.0001) %MON seaice_area_sd               =   1.8221240168836E-06
(PID.TID 0000.0001) %MON seaice_area_del2             =   2.3044384340529E-08
(PID.TID 0000.0001) %MON seaice_heff_max              =   3.0999846466817E-01
(PID.TID 0000.0001) %MON seaice_heff_min              =   2.9006035109202E-01
(PID.TID 0000.0001) %MON seaice_heff_mean             =   3.0067126525963E-01
(PID.TID 0000.0001) %MON seaice_heff_sd               =   5.0069255926409E-03
(PID.TID 0000.0001) %MON seaice_heff_del2             =   1.2853734882520E-05
(PID.TID 0000.0001) %MON seaice_hsnow_max             =   0.0000000000000E+00
(PID.TID 0000.0001) %MON seaice_hsnow_min             =   0.0000000000000E+00
(PID.TID 0000.0001) %MON seaice_hsnow_mean            =   0.0000000000000E+00
(PID.TID 0000.0001) %MON seaice_hsnow_sd              =   0.0000000000000E+00
(PID.TID 0000.0001) %MON seaice_hsnow_del2            =   0.0000000000000E+00
(PID.TID 0000.0001) // =======================================================
(PID.TID 0000.0001) // End MONITOR SEAICE statistics
(PID.TID 0000.0001) // =======================================================
 Computing Diagnostic #    163  SIuice       Counter:       1   Parms: UU      M1      
           Vector  Mate for  SIuice       Diagnostic #    164  SIvice   exists 
 Computing Diagnostic #    164  SIvice       Counter:       1   Parms: VV      M1      
           Vector  Mate for  SIvice       Diagnostic #    163  SIuice   exists 
 Computing Diagnostic #    149  SIheff       Counter:       1   Parms: SM      M1      
 Computing Diagnostic #    146  SIarea       Counter:       1   Parms: SM      M1      
 Computing Diagnostic #    228  SIshear      Counter:       1   Parms: SM      M1      
 Computing Diagnostic #    233  SIcohes      Counter:       1   Parms: SM      M1      
 Computing Diagnostic #    221  SIsig1       Counter:       1   Parms: SM      M1      
 Computing Diagnostic #    222  SIsig2       Counter:       1   Parms: SM      M1      
 Computing Diagnostic #    231  SIdamage     Counter:       1   Parms: SM      M1      
 Computing Diagnostic #    165  SItaux       Counter:       1   Parms: UU      U1      
           Vector  Mate for  SItaux       Diagnostic #    166  SItauy   exists 
 Computing Diagnostic #    166  SItauy       Counter:       1   Parms: VV      U1      
           Vector  Mate for  SItauy       Diagnostic #    165  SItaux   exists 
 Computing Diagnostic #    133  EXFuwind     Counter:       1   Parms: UM      U1      
 Computing Diagnostic #    134  EXFvwind     Counter:       1   Parms: VM      U1      
(PID.TID 0000.0001)  S/R SEAICE_KRYLOV: Picard iterate / total, KRYLOVgamma_lin, initial norm =       1   1901 0.10000E+00 0.10751E+00
(PID.TID 0000.0001)  S/R SEAICE_KRYLOV: Picard iterate / total =      1 /   1901, Nb. of FGMRES iterations =      1
(PID.TID 0000.0001)  S/R SEAICE_KRYLOV: Picard iterate / total, KRYLOVgamma_lin, initial norm =       2   1902 0.50000E-01 0.11654E-03
(PID.TID 0000.0001)  S/R SEAICE_KRYLOV: Picard iterate / total =      2 /   1902, Nb. of FGMRES iterations =      1
(PID.TID 0000.0001)  S/R SEAICE_KRYLOV: Picard iterate / total, KRYLOVgamma_lin, final   norm =       3   1903 0.50000E-01 0.29424E-04
(PID.TID 0000.0001)  // =======================================================
(PID.TID 0000.0001)  // Begin KRYLOV statistics
(PID.TID 0000.0001)  // =======================================================
(PID.TID 0000.0001)  %KRYLOV_MON: time step              =         20
(PID.TID 0000.0001)  %KRYLOV_MON: Nb. of time steps      =          1
(PID.TID 0000.0001)  %KRYLOV_MON: Nb. of Picard steps    =          3
(PID.TID 0000.0001)  %KRYLOV_MON: Nb. of Krylov steps    =          2
(PID.TID 0000.0001)  %KRYLOV_MON: Nb. of Picard failures =          0
(PID.TID 0000.0001)  %KRYLOV_MON: Nb. of Krylov failures =          0
(PID.TID 0000.0001)  // =======================================================
(PID.TID 0000.0001)  // End KRYLOV statistics
(PID.TID 0000.0001)  // =======================================================
(PID.TID 0000.0001)  S/R SEAICE_KRYLOV: Total number FGMRES iterations =      2 in timestep         20
(PID.TID 0000.0001) // =======================================================
(PID.TID 0000.0001) // Begin MONITOR dynamic field statistics
(PID.TID 0000.0001) // =======================================================
(PID.TID 0000.0001) %MON time_tsnumber                =                    20
(PID.TID 0000.0001) %MON time_secondsf                =   5.0000000000000E+01
(PID.TID 0000.0001) %MON dynstat_eta_max              =   0.0000000000000E+00
(PID.TID 0000.0001) %MON dynstat_eta_min              =   0.0000000000000E+00
(PID.TID 0000.0001) %MON dynstat_eta_mean             =   0.0000000000000E+00
(PID.TID 0000.0001) %MON dynstat_eta_sd               =   0.0000000000000E+00
(PID.TID 0000.0001) %MON dynstat_eta_del2             =   0.0000000000000E+00
(PID.TID 0000.0001) %MON dynstat_uvel_max             =   9.8437500000000E-03
(PID.TID 0000.0001) %MON dynstat_uvel_min             =  -9.8437500000000E-03
(PID.TID 0000.0001) %MON dynstat_uvel_mean            =   0.0000000000000E+00
(PID.TID 0000.0001) %MON dynstat_uvel_sd              =   5.7727978755972E-03
(PID.TID 0000.0001) %MON dynstat_uvel_del2            =   1.0089048364799E-20
(PID.TID 0000.0001) %MON dynstat_vvel_max             =   9.8437500000000E-03
(PID.TID 0000.0001) %MON dynstat_vvel_min             =  -9.8437500000000E-03
(PID.TID 0000.0001) %MON dynstat_vvel_mean            =   0.0000000000000E+00
(PID.TID 0000.0001) %MON dynstat_vvel_sd              =   5.7727978755972E-03
(PID.TID 0000.0001) %MON dynstat_vvel_del2            =   1.0089048364799E-20
(PID.TID 0000.0001) %MON dynstat_wvel_max             =   1.1914062500000E-05
(PID.TID 0000.0001) %MON dynstat_wvel_min             =  -1.1914062500000E-05
(PID.TID 0000.0001) %MON dynstat_wvel_mean            =   3.4694469519536E-25
(PID.TID 0000.0001) %MON dynstat_wvel_sd              =   1.7200872247780E-06
(PID.TID 0000.0001) %MON dynstat_wvel_del2            =   2.8187489626940E-08
(PID.TID 0000.0001) %MON dynstat_theta_max            =  -1.6200000000000E+00
(PID.TID 0000.0001) %MON dynstat_theta_min            =  -1.6200000000000E+00
(PID.TID 0000.0001) %MON dynstat_theta_mean           =  -1.6200000000000E+00
(PID.TID 0000.0001) %MON dynstat_theta_sd             =   0.0000000000000E+00
(PID.TID 0000.0001) %MON dynstat_theta_del2           =   0.0000000000000E+00
(PID.TID 0000.0001) %MON dynstat_salt_max             =   3.0000000000000E+01
(PID.TID 0000.0001) %MON dynstat_salt_min             =   3.0000000000000E+01
(PID.TID 0000.0001) %MON dynstat_salt_mean            =   3.0000000000000E+01
(PID.TID 0000.0001) %MON dynstat_salt_sd              =   0.0000000000000E+00
(PID.TID 0000.0001) %MON dynstat_salt_del2            =   0.0000000000000E+00
(PID.TID 0000.0001) %MON trAdv_CFL_u_max              =   3.0761718750000E-06
(PID.TID 0000.0001) %MON trAdv_CFL_v_max              =   3.0761718750000E-06
(PID.TID 0000.0001) %MON trAdv_CFL_w_max              =   2.9785156250000E-06
(PID.TID 0000.0001) %MON advcfl_uvel_max              =   3.0761718750000E-06
(PID.TID 0000.0001) %MON advcfl_vvel_max              =   3.0761718750000E-06
(PID.TID 0000.0001) %MON advcfl_wvel_max              =   5.9570312500000E-06
(PID.TID 0000.0001) %MON advcfl_W_hf_max              =   0.0000000000000E+00
(PID.TID 0000.0001) %MON pe_b_mean                    =   0.0000000000000E+00
(PID.TID 0000.0001) %MON ke_max                       =   9.0844726562500E-05
(PID.TID 0000.0001) %MON ke_mean                      =   3.2804489135742E-05
(PID.TID 0000.0001) %MON ke_vol                       =   2.6214400000000E+12
(PID.TID 0000.0001) %MON vort_r_min                   =  -7.8125000000000E-08
(PID.TID 0000.0001) %MON vort_r_max                   =   1.2304687500000E-06
(PID.TID 0000.0001) %MON vort_a_mean                  =   1.4856000000000E-04
(PID.TID 0000.0001) %MON vort_a_sd                    =   1.5312918562496E-06
(PID.TID 0000.0001) %MON vort_p_mean                  =   1.5552375000000E-04
(PID.TID 0000.0001) %MON vort_p_sd                    =   5.5921473110222E-05
(PID.TID 0000.0001) %MON surfExpan_theta_mean         =   0.0000000000000E+00
(PID.TID 0000.0001) %MON surfExpan_salt_mean          =   1.3877787807814E-23
(PID.TID 0000.0001) // =======================================================
(PID.TID 0000.0001) // End MONITOR dynamic field statistics
(PID.TID 0000.0001) // =======================================================
(PID.TID 0000.0001) // =======================================================
(PID.TID 0000.0001) // Begin MONITOR SEAICE statistics
(PID.TID 0000.0001) // =======================================================
(PID.TID 0000.0001) %MON seaice_tsnumber              =                    20
(PID.TID 0000.0001) %MON seaice_time_sec              =   5.0000000000000E+01
(PID.TID 0000.0001) %MON seaice_uice_max              =   3.4150655298176E-02
(PID.TID 0000.0001) %MON seaice_uice_min              =  -3.4692565647271E-02
(PID.TID 0000.0001) %MON seaice_uice_mean             =  -9.3801543874594E-07
(PID.TID 0000.0001) %MON seaice_uice_sd               =   1.4616512865657E-02
(PID.TID 0000.0001) %MON seaice_uice_del2             =   4.2447993651701E-06
(PID.TID 0000.0001) %MON seaice_vice_max              =   3.3269775416718E-02
(PID.TID 0000.0001) %MON seaice_vice_min              =  -3.3750213530618E-02
(PID.TID 0000.0001) %MON seaice_vice_mean             =   3.8584033995957E-06
(PID.TID 0000.0001) %MON seaice_vice_sd               =   1.4548822427868E-02
(PID.TID 0000.0001) %MON seaice_vice_del2             =   4.2592594671183E-06
(PID.TID 0000.0001) %MON seaice_area_max              =   1.0000000000000E+00
(PID.TID 0000.0001) %MON seaice_area_min              =   9.9998499177445E-01
(PID.TID 0000.0001) %MON seaice_area_mean             =   9.9999913989001E-01
(PID.TID 0000.0001) %MON seaice_area_sd               =   2.0177453584664E-06
(PID.TID 0000.0001) %MON seaice_area_del2             =   2.5621925295227E-08
(PID.TID 0000.0001) %MON seaice_heff_max              =   3.0999844286052E-01
(PID.TID 0000.0001) %MON seaice_heff_min              =   2.9006032873946E-01
(PID.TID 0000.0001) %MON seaice_heff_mean             =   3.0067126525963E-01
(PID.TID 0000.0001) %MON seaice_heff_sd               =   5.0069256374481E-03
(PID.TID 0000.0001) %MON seaice_heff_del2             =   1.2853733589725E-05
(PID.TID 0000.0001) %MON seaice_hsnow_max             =   0.0000000000000E+00
(PID.TID 0000.0001) %MON seaice_hsnow_min             =   0.0000000000000E+00
(PID.TID 0000.0001) %MON seaice_hsnow_mean            =   0.0000000000000E+00
(PID.TID 0000.0001) %MON seaice_hsnow_sd              =   0.0000000000000E+00
(PID.TID 0000.0001) %MON seaice_hsnow_del2            =   0.0000000000000E+00
(PID.TID 0000.0001) // =======================================================
(PID.TID 0000.0001) // End MONITOR SEAICE statistics
(PID.TID 0000.0001) // =======================================================
 Computing Diagnostic #    163  SIuice       Counter:       1   Parms: UU      M1      
           Vector  Mate for  SIuice       Diagnostic #    164  SIvice   exists 
 Computing Diagnostic #    164  SIvice       Counter:       1   Parms: VV      M1      
           Vector  Mate for  SIvice       Diagnostic #    163  SIuice   exists 
 Computing Diagnostic #    149  SIheff       Counter:       1   Parms: SM      M1      
 Computing Diagnostic #    146  SIarea       Counter:       1   Parms: SM      M1      
 Computing Diagnostic #    228  SIshear      Counter:       1   Parms: SM      M1      
 Computing Diagnostic #    233  SIcohes      Counter:       1   Parms: SM      M1      
 Computing Diagnostic #    221  SIsig1       Counter:       1   Parms: SM      M1      
 Computing Diagnostic #    222  SIsig2       Counter:       1   Parms: SM      M1      
 Computing Diagnostic #    231  SIdamage     Counter:       1   Parms: SM      M1      
 Computing Diagnostic #    165  SItaux       Counter:       1   Parms: UU      U1      
           Vector  Mate for  SItaux       Diagnostic #    166  SItauy   exists 
 Computing Diagnostic #    166  SItauy       Counter:       1   Parms: VV      U1      
           Vector  Mate for  SItauy       Diagnostic #    165  SItaux   exists 
 Computing Diagnostic #    133  EXFuwind     Counter:       1   Parms: UM      U1      
 Computing Diagnostic #    134  EXFvwind     Counter:       1   Parms: VM      U1      
(PID.TID 0000.0001) Did not write pickup because writePickupAtEnd = FALSE
(PID.TID 0000.0001)   Seconds in section "ALL                    [THE_MODEL_MAIN]":
(PID.TID 0000.0001)           User time:   2.1245409795083106
(PID.TID 0000.0001)         System time:   2.7249000035226345E-002
(PID.TID 0000.0001)     Wall clock time:   2.1561679840087891
(PID.TID 0000.0001)          No. starts:           1
(PID.TID 0000.0001)           No. stops:           1
(PID.TID 0000.0001)   Seconds in section "INITIALISE_FIXED       [THE_MODEL_MAIN]":
(PID.TID 0000.0001)           User time:   1.6753999516367912E-002
(PID.TID 0000.0001)         System time:   5.0010001286864281E-003
(PID.TID 0000.0001)     Wall clock time:   2.2433996200561523E-002
(PID.TID 0000.0001)          No. starts:           1
(PID.TID 0000.0001)           No. stops:           1
(PID.TID 0000.0001)   Seconds in section "THE_MAIN_LOOP          [THE_MODEL_MAIN]":
(PID.TID 0000.0001)           User time:   2.1077699735760689
(PID.TID 0000.0001)         System time:   2.2244001738727093E-002
(PID.TID 0000.0001)     Wall clock time:   2.1337170600891113
(PID.TID 0000.0001)          No. starts:           1
(PID.TID 0000.0001)           No. stops:           1
(PID.TID 0000.0001)   Seconds in section "INITIALISE_VARIA    [THE_MAIN_LOOP]":
(PID.TID 0000.0001)           User time:   1.2903001159429550E-002
(PID.TID 0000.0001)         System time:   1.9249999895691872E-003
(PID.TID 0000.0001)     Wall clock time:   1.4832019805908203E-002
(PID.TID 0000.0001)          No. starts:           1
(PID.TID 0000.0001)           No. stops:           1
(PID.TID 0000.0001)   Seconds in section "MAIN LOOP           [THE_MAIN_LOOP]":
(PID.TID 0000.0001)           User time:   2.0948499664664268
(PID.TID 0000.0001)         System time:   2.0315001718699932E-002
(PID.TID 0000.0001)     Wall clock time:   2.1188681125640869
(PID.TID 0000.0001)          No. starts:           1
(PID.TID 0000.0001)           No. stops:           1
(PID.TID 0000.0001)   Seconds in section "MAIN_DO_LOOP        [THE_MAIN_LOOP]":
(PID.TID 0000.0001)           User time:   2.0947409123182297
(PID.TID 0000.0001)         System time:   2.0311000756919384E-002
(PID.TID 0000.0001)     Wall clock time:   2.1187603473663330
(PID.TID 0000.0001)          No. starts:          20
(PID.TID 0000.0001)           No. stops:          20
(PID.TID 0000.0001)   Seconds in section "FORWARD_STEP        [MAIN_DO_LOOP]":
(PID.TID 0000.0001)           User time:   2.0945387706160545
(PID.TID 0000.0001)         System time:   2.0306001417338848E-002
(PID.TID 0000.0001)     Wall clock time:   2.1185462474822998
(PID.TID 0000.0001)          No. starts:          20
(PID.TID 0000.0001)           No. stops:          20
(PID.TID 0000.0001)   Seconds in section "DO_STATEVARS_DIAGS  [FORWARD_STEP]":
(PID.TID 0000.0001)           User time:   3.2520666718482971E-003
(PID.TID 0000.0001)         System time:   1.4000572264194489E-005
(PID.TID 0000.0001)     Wall clock time:   3.2858848571777344E-003
(PID.TID 0000.0001)          No. starts:          40
(PID.TID 0000.0001)           No. stops:          40
(PID.TID 0000.0001)   Seconds in section "LOAD_FIELDS_DRIVER  [FORWARD_STEP]":
(PID.TID 0000.0001)           User time:   5.8985020965337753E-002
(PID.TID 0000.0001)         System time:   2.1799560636281967E-004
(PID.TID 0000.0001)     Wall clock time:   5.9204816818237305E-002
(PID.TID 0000.0001)          No. starts:          20
(PID.TID 0000.0001)           No. stops:          20
(PID.TID 0000.0001)   Seconds in section "EXF_GETFORCING     [LOAD_FLDS_DRIVER]":
(PID.TID 0000.0001)           User time:   5.8570135384798050E-002
(PID.TID 0000.0001)         System time:   1.9799731671810150E-004
(PID.TID 0000.0001)     Wall clock time:   5.8776378631591797E-002
(PID.TID 0000.0001)          No. starts:          20
(PID.TID 0000.0001)           No. stops:          20
(PID.TID 0000.0001)   Seconds in section "EXTERNAL_FLDS_LOAD [LOAD_FLDS_DRIVER]":
(PID.TID 0000.0001)           User time:   1.0385736823081970E-004
(PID.TID 0000.0001)         System time:   6.9998204708099365E-006
(PID.TID 0000.0001)     Wall clock time:   1.1205673217773438E-004
(PID.TID 0000.0001)          No. starts:          20
(PID.TID 0000.0001)           No. stops:          20
(PID.TID 0000.0001)   Seconds in section "DO_ATMOSPHERIC_PHYS [FORWARD_STEP]":
(PID.TID 0000.0001)           User time:   1.0205432772636414E-004
(PID.TID 0000.0001)         System time:   6.0005113482475281E-006
(PID.TID 0000.0001)     Wall clock time:   1.0657310485839844E-004
(PID.TID 0000.0001)          No. starts:          20
(PID.TID 0000.0001)           No. stops:          20
(PID.TID 0000.0001)   Seconds in section "DO_OCEANIC_PHYS     [FORWARD_STEP]":
(PID.TID 0000.0001)           User time:   1.8735710233449936
(PID.TID 0000.0001)         System time:   1.5350002795457840E-003
(PID.TID 0000.0001)     Wall clock time:   1.8754775524139404
(PID.TID 0000.0001)          No. starts:          20
(PID.TID 0000.0001)           No. stops:          20
(PID.TID 0000.0001)   Seconds in section "SEAICE_MODEL    [DO_OCEANIC_PHYS]":
(PID.TID 0000.0001)           User time:   1.8652261346578598
(PID.TID 0000.0001)         System time:   1.5150010585784912E-003
(PID.TID 0000.0001)     Wall clock time:   1.8671157360076904
(PID.TID 0000.0001)          No. starts:          20
(PID.TID 0000.0001)           No. stops:          20
(PID.TID 0000.0001)   Seconds in section "SEAICE_DYNSOLVER   [SEAICE_MODEL]":
(PID.TID 0000.0001)           User time:   1.7926635555922985
(PID.TID 0000.0001)         System time:   1.3820007443428040E-003
(PID.TID 0000.0001)     Wall clock time:   1.7944393157958984
(PID.TID 0000.0001)          No. starts:          20
(PID.TID 0000.0001)           No. stops:          20
(PID.TID 0000.0001)   Seconds in section "THERMODYNAMICS      [FORWARD_STEP]":
(PID.TID 0000.0001)           User time:   8.6667835712432861E-003
(PID.TID 0000.0001)         System time:   2.5001354515552521E-005
(PID.TID 0000.0001)     Wall clock time:   8.6896419525146484E-003
(PID.TID 0000.0001)          No. starts:          20
(PID.TID 0000.0001)           No. stops:          20
(PID.TID 0000.0001)   Seconds in section "TRC_CORRECTION_STEP [FORWARD_STEP]":
(PID.TID 0000.0001)           User time:   1.0293722152709961E-004
(PID.TID 0000.0001)         System time:   3.9990991353988647E-006
(PID.TID 0000.0001)     Wall clock time:   1.0824203491210938E-004
(PID.TID 0000.0001)          No. starts:          20
(PID.TID 0000.0001)           No. stops:          20
(PID.TID 0000.0001)   Seconds in section "BLOCKING_EXCHANGES  [FORWARD_STEP]":
(PID.TID 0000.0001)           User time:   1.6594827175140381E-003
(PID.TID 0000.0001)         System time:   2.0004808902740479E-006
(PID.TID 0000.0001)     Wall clock time:   1.6665458679199219E-003
(PID.TID 0000.0001)          No. starts:          20
(PID.TID 0000.0001)           No. stops:          20
(PID.TID 0000.0001)   Seconds in section "MONITOR             [FORWARD_STEP]":
(PID.TID 0000.0001)           User time:   6.5616220235824585E-002
(PID.TID 0000.0001)         System time:   3.1099934130907059E-004
(PID.TID 0000.0001)     Wall clock time:   6.5926313400268555E-002
(PID.TID 0000.0001)          No. starts:          20
(PID.TID 0000.0001)           No. stops:          20
(PID.TID 0000.0001)   Seconds in section "DO_THE_MODEL_IO     [FORWARD_STEP]":
(PID.TID 0000.0001)           User time:   8.1228062510490417E-002
(PID.TID 0000.0001)         System time:   1.8121997825801373E-002
(PID.TID 0000.0001)     Wall clock time:  0.10267567634582520
(PID.TID 0000.0001)          No. starts:          20
(PID.TID 0000.0001)           No. stops:          20
(PID.TID 0000.0001)   Seconds in section "DO_WRITE_PICKUP     [FORWARD_STEP]":
(PID.TID 0000.0001)           User time:   1.1000037193298340E-004
(PID.TID 0000.0001)         System time:   6.0033053159713745E-006
(PID.TID 0000.0001)     Wall clock time:   1.1181831359863281E-004
(PID.TID 0000.0001)          No. starts:          20
(PID.TID 0000.0001)           No. stops:          20
(PID.TID 0000.0001) // ======================================================
(PID.TID 0000.0001) // Tile <-> Tile communication statistics
(PID.TID 0000.0001) // ======================================================
(PID.TID 0000.0001) // o Tile number: 000001
(PID.TID 0000.0001) //         No. X exchanges =              0
(PID.TID 0000.0001) //            Max. X spins =              0
(PID.TID 0000.0001) //            Min. X spins =     1000000000
(PID.TID 0000.0001) //          Total. X spins =              0
(PID.TID 0000.0001) //            Avg. X spins =       0.00E+00
(PID.TID 0000.0001) //         No. Y exchanges =              0
(PID.TID 0000.0001) //            Max. Y spins =              0
(PID.TID 0000.0001) //            Min. Y spins =     1000000000
(PID.TID 0000.0001) //          Total. Y spins =              0
(PID.TID 0000.0001) //            Avg. Y spins =       0.00E+00
(PID.TID 0000.0001) // o Thread number: 000001
(PID.TID 0000.0001) //            No. barriers =           5992
(PID.TID 0000.0001) //      Max. barrier spins =              1
(PID.TID 0000.0001) //      Min. barrier spins =              1
(PID.TID 0000.0001) //     Total barrier spins =           5992
(PID.TID 0000.0001) //      Avg. barrier spins =       1.00E+00
PROGRAM MAIN: Execution ended Normally
